bg33_3_pose0_reference


 20 20  0  0  0  0  0  0  0  0999 V2000
    6.0420    2.6940   -2.5780 C   0  0  0  0  0  0  0  0  0  0  0  0
    5.3260    3.6270   -2.8590 O   0  0  0  0  0  0  0  0  0  0  0  0
    6.8480    2.6480   -1.2370 C   0  0  0  0  0  0  0  0  0  0  0  0
    6.2770    2.0730   -0.1540 C   0  0  0  0  0  0  0  0  0  0  0  0
    6.9120    2.0780    1.1390 C   0  0  0  0  0  0  0  0  0  0  0  0
    7.0370    3.2390    1.8690 C   0  0  0  0  0  0  0  0  0  0  0  0
    7.5810    3.2610    3.1020 C   0  0  0  0  0  0  0  0  0  0  0  0
    8.0280    2.0750    3.6380 C   0  0  0  0  0  0  0  0  0  0  0  0
    7.9530    0.9150    2.9310 C   0  0  0  0  0  0  0  0  0  0  0  0
    7.3830    0.9180    1.6760 C   0  0  0  0  0  0  0  0  0  0  0  0
    8.6200    2.0160    4.8500 O   0  0  0  0  0  0  0  0  0  0  0  0
    8.3110    3.0760    5.7380 C   0  0  0  0  0  0  0  0  0  0  0  0
    6.1380    1.7610   -3.4260 O   0  0  0  0  0  0  0  0  0  0  0  0
    5.1070    1.6830   -4.4610 C   0  0  0  0  0  0  0  0  0  0  0  0
    4.9770    0.2940   -4.8810 C   0  0  0  0  0  0  0  0  0  0  0  0
    6.1310   -0.5670   -4.4630 C   0  0  0  0  0  0  0  0  0  0  0  0
    5.4690    2.5560   -5.6490 C   0  0  0  0  0  0  0  0  0  0  0  0
    4.1670    3.2130   -6.1580 C   0  0  0  0  0  0  0  0  0  0  0  0
    3.1410    5.1760   -7.2480 C   0  0  0  0  0  0  0  0  0  0  0  0
    4.4140    4.3080   -7.1460 C   0  0  0  0  0  0  0  0  0  0  0  0
 20 19  1  0
 18 20  1  0
 17 18  1  0
 14 17  1  0
 15 14  1  0
 16 15  1  0
 13 14  1  0
  1 13  1  0
  2  1  2  0
  3  1  1  0
  4  3  2  0
  5  4  1  0
  6  5  1  0
  7  6  2  0
  8  7  1  0
 11  8  1  0
 12 11  1  0
  9  8  2  0
 10  9  1  0
 10  5  2  0
M  END
> <structure>
bg33_3

> <pose>
0

> <is_reference>
1

> <rmsd_to_reference_A>
0.000

> <vina_score>


> <minimizedAffinity>
-1.50165

> <CNNscore>
0.3056437671

> <CNNaffinity>
4.2012863159

> <CNN_VS>
1.2840969563

> <CNNaffinity_variance>
0.4053584039

$$$$
bg33_3_pose1


 20 20  0  0  0  0  0  0  0  0999 V2000
    5.2820   -2.1830   -2.6030 C   0  0  0  0  0  0  0  0  0  0  0  0
    4.3530   -2.6020   -3.2530 O   0  0  0  0  0  0  0  0  0  0  0  0
    5.4800   -2.5740   -1.1000 C   0  0  0  0  0  0  0  0  0  0  0  0
    6.6420   -3.1570   -0.7270 C   0  0  0  0  0  0  0  0  0  0  0  0
    6.8620   -3.6350    0.6140 C   0  0  0  0  0  0  0  0  0  0  0  0
    6.1640   -4.7140    1.1110 C   0  0  0  0  0  0  0  0  0  0  0  0
    6.3880   -5.2110    2.3440 C   0  0  0  0  0  0  0  0  0  0  0  0
    7.3480   -4.6090    3.1250 C   0  0  0  0  0  0  0  0  0  0  0  0
    8.0310   -3.5200    2.6800 C   0  0  0  0  0  0  0  0  0  0  0  0
    7.7900   -3.0370    1.4110 C   0  0  0  0  0  0  0  0  0  0  0  0
    7.6060   -5.0210    4.3840 O   0  0  0  0  0  0  0  0  0  0  0  0
    7.7020   -3.9970    5.3590 C   0  0  0  0  0  0  0  0  0  0  0  0
    6.0810   -1.3890   -3.1780 O   0  0  0  0  0  0  0  0  0  0  0  0
    6.1380   -0.0140   -2.6810 C   0  0  0  0  0  0  0  0  0  0  0  0
    5.6430    0.8760   -3.7230 C   0  0  0  0  0  0  0  0  0  0  0  0
    5.6350    2.3200   -3.3210 C   0  0  0  0  0  0  0  0  0  0  0  0
    7.5580    0.3640   -2.3030 C   0  0  0  0  0  0  0  0  0  0  0  0
    7.6220    0.4560   -0.7620 C   0  0  0  0  0  0  0  0  0  0  0  0
    6.2060    2.0510    0.4810 C   0  0  0  0  0  0  0  0  0  0  0  0
    6.2770    0.6360   -0.1330 C   0  0  0  0  0  0  0  0  0  0  0  0
 20 19  1  0
 18 20  1  0
 17 18  1  0
 14 17  1  0
 15 14  1  0
 16 15  1  0
 13 14  1  0
  1 13  1  0
  2  1  2  0
  3  1  1  0
  4  3  2  0
  5  4  1  0
  6  5  1  0
  7  6  2  0
  8  7  1  0
 11  8  1  0
 12 11  1  0
  9  8  2  0
 10  9  1  0
 10  5  2  0
M  END
> <structure>
bg33_3

> <pose>
1

> <is_reference>
0

> <rmsd_to_reference_A>
5.935

> <vina_score>
-4.2

> <minimizedAffinity>
-4.15165

> <CNNscore>
0.2175746411

> <CNNaffinity>
3.9739673138

> <CNN_VS>
0.8646345139

> <CNNaffinity_variance>
0.4761684835

$$$$
bg33_3_pose2


 20 20  0  0  0  0  0  0  0  0999 V2000
    8.1880   -1.6240    1.7410 C   0  0  0  0  0  0  0  0  0  0  0  0
    8.0740   -0.5740    2.3300 O   0  0  0  0  0  0  0  0  0  0  0  0
    7.6920   -1.8000    0.2670 C   0  0  0  0  0  0  0  0  0  0  0  0
    6.7400   -0.9630   -0.2030 C   0  0  0  0  0  0  0  0  0  0  0  0
    6.1610   -1.1220   -1.5130 C   0  0  0  0  0  0  0  0  0  0  0  0
    5.5000   -2.2770   -1.8670 C   0  0  0  0  0  0  0  0  0  0  0  0
    4.9070   -2.4300   -3.0670 C   0  0  0  0  0  0  0  0  0  0  0  0
    4.9750   -1.3890   -3.9650 C   0  0  0  0  0  0  0  0  0  0  0  0
    5.6500   -0.2470   -3.6630 C   0  0  0  0  0  0  0  0  0  0  0  0
    6.2400   -0.1120   -2.4240 C   0  0  0  0  0  0  0  0  0  0  0  0
    4.4410   -1.4750   -5.2020 O   0  0  0  0  0  0  0  0  0  0  0  0
    5.3150   -1.9310   -6.2190 C   0  0  0  0  0  0  0  0  0  0  0  0
    8.7030   -2.5900    2.3740 O   0  0  0  0  0  0  0  0  0  0  0  0
    7.8840   -3.2370    3.3990 C   0  0  0  0  0  0  0  0  0  0  0  0
    8.6260   -3.2370    4.6530 C   0  0  0  0  0  0  0  0  0  0  0  0
    8.2360   -4.3510    5.5770 C   0  0  0  0  0  0  0  0  0  0  0  0
    7.5400   -4.6590    2.9950 C   0  0  0  0  0  0  0  0  0  0  0  0
    6.0550   -4.6760    2.5690 C   0  0  0  0  0  0  0  0  0  0  0  0
    7.1440   -5.4790    0.5040 C   0  0  0  0  0  0  0  0  0  0  0  0
    5.8740   -4.8270    1.0920 C   0  0  0  0  0  0  0  0  0  0  0  0
 20 19  1  0
 18 20  1  0
 17 18  1  0
 14 17  1  0
 15 14  1  0
 16 15  1  0
 13 14  1  0
  1 13  1  0
  2  1  2  0
  3  1  1  0
  4  3  2  0
  5  4  1  0
  6  5  1  0
  7  6  2  0
  8  7  1  0
 11  8  1  0
 12 11  1  0
  9  8  2  0
 10  9  1  0
 10  5  2  0
M  END
> <structure>
bg33_3

> <pose>
2

> <is_reference>
0

> <rmsd_to_reference_A>
9.249

> <vina_score>
-4.1

> <minimizedAffinity>
-4.20890

> <CNNscore>
0.2055585980

> <CNNaffinity>
3.8881499767

> <CNN_VS>
0.7992426753

> <CNNaffinity_variance>
0.6848855019

$$$$
bg33_3_pose3


 20 20  0  0  0  0  0  0  0  0999 V2000
    8.4000    0.3330    1.6970 C   0  0  0  0  0  0  0  0  0  0  0  0
    9.5550    0.1560    2.0070 O   0  0  0  0  0  0  0  0  0  0  0  0
    7.8920    0.0940    0.2360 C   0  0  0  0  0  0  0  0  0  0  0  0
    6.6630   -0.4420    0.0540 C   0  0  0  0  0  0  0  0  0  0  0  0
    6.1640   -0.7830   -1.2530 C   0  0  0  0  0  0  0  0  0  0  0  0
    5.6220   -2.0220   -1.5100 C   0  0  0  0  0  0  0  0  0  0  0  0
    5.1020   -2.3480   -2.7100 C   0  0  0  0  0  0  0  0  0  0  0  0
    5.1230   -1.4010   -3.7080 C   0  0  0  0  0  0  0  0  0  0  0  0
    5.6820   -0.1780   -3.5010 C   0  0  0  0  0  0  0  0  0  0  0  0
    6.1980    0.1340   -2.2610 C   0  0  0  0  0  0  0  0  0  0  0  0
    4.6570   -1.6590   -4.9490 O   0  0  0  0  0  0  0  0  0  0  0  0
    4.9410   -0.6750   -5.9290 C   0  0  0  0  0  0  0  0  0  0  0  0
    7.6150    0.7480    2.5980 O   0  0  0  0  0  0  0  0  0  0  0  0
    7.9790    1.9830    3.2920 C   0  0  0  0  0  0  0  0  0  0  0  0
    7.1280    2.1220    4.4660 C   0  0  0  0  0  0  0  0  0  0  0  0
    7.8200    2.7610    5.6330 C   0  0  0  0  0  0  0  0  0  0  0  0
    7.8100    3.1840    2.3790 C   0  0  0  0  0  0  0  0  0  0  0  0
    6.3040    3.5230    2.3300 C   0  0  0  0  0  0  0  0  0  0  0  0
    6.5850    3.5260   -0.1230 C   0  0  0  0  0  0  0  0  0  0  0  0
    5.6570    3.1190    1.0430 C   0  0  0  0  0  0  0  0  0  0  0  0
 20 19  1  0
 18 20  1  0
 17 18  1  0
 14 17  1  0
 15 14  1  0
 16 15  1  0
 13 14  1  0
  1 13  1  0
  2  1  2  0
  3  1  1  0
  4  3  2  0
  5  4  1  0
  6  5  1  0
  7  6  2  0
  8  7  1  0
 11  8  1  0
 12 11  1  0
  9  8  2  0
 10  9  1  0
 10  5  2  0
M  END
> <structure>
bg33_3

> <pose>
3

> <is_reference>
0

> <rmsd_to_reference_A>
7.860

> <vina_score>
-4.0

> <minimizedAffinity>
-4.06856

> <CNNscore>
0.3532916009

> <CNNaffinity>
4.1758770943

> <CNN_VS>
1.4753023386

> <CNNaffinity_variance>
0.5519390106

$$$$
bg33_3_pose4


 20 20  0  0  0  0  0  0  0  0999 V2000
    6.6370   -4.6120    0.8400 C   0  0  0  0  0  0  0  0  0  0  0  0
    6.6120   -5.8180    0.7520 O   0  0  0  0  0  0  0  0  0  0  0  0
    6.7080   -3.6940   -0.4250 C   0  0  0  0  0  0  0  0  0  0  0  0
    5.7880   -2.7120   -0.5700 C   0  0  0  0  0  0  0  0  0  0  0  0
    5.7260   -1.8900   -1.7510 C   0  0  0  0  0  0  0  0  0  0  0  0
    5.1240   -2.3410   -2.9040 C   0  0  0  0  0  0  0  0  0  0  0  0
    5.0080   -1.5720   -4.0060 C   0  0  0  0  0  0  0  0  0  0  0  0
    5.5180   -0.2950   -3.9650 C   0  0  0  0  0  0  0  0  0  0  0  0
    6.1500    0.1720   -2.8540 C   0  0  0  0  0  0  0  0  0  0  0  0
    6.2470   -0.6310   -1.7380 C   0  0  0  0  0  0  0  0  0  0  0  0
    5.4770    0.5260   -5.0360 O   0  0  0  0  0  0  0  0  0  0  0  0
    5.4240   -0.1140   -6.2990 C   0  0  0  0  0  0  0  0  0  0  0  0
    6.6300   -4.1160    2.0030 O   0  0  0  0  0  0  0  0  0  0  0  0
    7.8270   -4.3060    2.8240 C   0  0  0  0  0  0  0  0  0  0  0  0
    7.4510   -4.1810    4.2260 C   0  0  0  0  0  0  0  0  0  0  0  0
    5.9940   -4.4290    4.4790 C   0  0  0  0  0  0  0  0  0  0  0  0
    8.8880   -3.2780    2.4740 C   0  0  0  0  0  0  0  0  0  0  0  0
    8.2510   -1.8790    2.6290 C   0  0  0  0  0  0  0  0  0  0  0  0
    7.7220    0.3300    1.6630 C   0  0  0  0  0  0  0  0  0  0  0  0
    8.4500   -1.0120    1.4270 C   0  0  0  0  0  0  0  0  0  0  0  0
 20 19  1  0
 18 20  1  0
 17 18  1  0
 14 17  1  0
 15 14  1  0
 16 15  1  0
 13 14  1  0
  1 13  1  0
  2  1  2  0
  3  1  1  0
  4  3  2  0
  5  4  1  0
  6  5  1  0
  7  6  2  0
  8  7  1  0
 11  8  1  0
 12 11  1  0
  9  8  2  0
 10  9  1  0
 10  5  2  0
M  END
> <structure>
bg33_3

> <pose>
4

> <is_reference>
0

> <rmsd_to_reference_A>
8.987

> <vina_score>
-4.0

> <minimizedAffinity>
-3.99749

> <CNNscore>
0.1714391857

> <CNNaffinity>
3.8769302368

> <CNN_VS>
0.6646577716

> <CNNaffinity_variance>
0.3817313612

$$$$
bg33_3_pose5


 20 20  0  0  0  0  0  0  0  0999 V2000
    8.0990   -2.4640    1.7790 C   0  0  0  0  0  0  0  0  0  0  0  0
    8.4830   -1.4620    2.3350 O   0  0  0  0  0  0  0  0  0  0  0  0
    7.6040   -2.4440    0.2940 C   0  0  0  0  0  0  0  0  0  0  0  0
    6.7520   -1.4680   -0.0950 C   0  0  0  0  0  0  0  0  0  0  0  0
    6.1740   -1.4370   -1.4140 C   0  0  0  0  0  0  0  0  0  0  0  0
    5.4040   -2.4780   -1.8810 C   0  0  0  0  0  0  0  0  0  0  0  0
    4.8110   -2.4510   -3.0920 C   0  0  0  0  0  0  0  0  0  0  0  0
    4.9940   -1.3390   -3.8810 C   0  0  0  0  0  0  0  0  0  0  0  0
    5.7770   -0.3070   -3.4660 C   0  0  0  0  0  0  0  0  0  0  0  0
    6.3640   -0.3550   -2.2200 C   0  0  0  0  0  0  0  0  0  0  0  0
    4.4670   -1.2480   -5.1210 O   0  0  0  0  0  0  0  0  0  0  0  0
    5.2940   -1.7060   -6.1760 C   0  0  0  0  0  0  0  0  0  0  0  0
    8.0870   -3.5330    2.4530 O   0  0  0  0  0  0  0  0  0  0  0  0
    6.7810   -4.0890    2.8110 C   0  0  0  0  0  0  0  0  0  0  0  0
    6.8190   -4.4970    4.2090 C   0  0  0  0  0  0  0  0  0  0  0  0
    7.0590   -3.3610    5.1570 C   0  0  0  0  0  0  0  0  0  0  0  0
    6.4410   -5.2770    1.9290 C   0  0  0  0  0  0  0  0  0  0  0  0
    7.5680   -6.3200    2.0990 C   0  0  0  0  0  0  0  0  0  0  0  0
    7.5570   -6.0520   -0.3550 C   0  0  0  0  0  0  0  0  0  0  0  0
    7.9480   -6.9820    0.8130 C   0  0  0  0  0  0  0  0  0  0  0  0
 20 19  1  0
 18 20  1  0
 17 18  1  0
 14 17  1  0
 15 14  1  0
 16 15  1  0
 13 14  1  0
  1 13  1  0
  2  1  2  0
  3  1  1  0
  4  3  2  0
  5  4  1  0
  6  5  1  0
  7  6  2  0
  8  7  1  0
 11  8  1  0
 12 11  1  0
  9  8  2  0
 10  9  1  0
 10  5  2  0
M  END
> <structure>
bg33_3

> <pose>
5

> <is_reference>
0

> <rmsd_to_reference_A>
9.432

> <vina_score>
-3.9

> <minimizedAffinity>
-4.19834

> <CNNscore>
0.2556200624

> <CNNaffinity>
4.1719584465

> <CNN_VS>
1.0664362907

> <CNNaffinity_variance>
0.2974024713

$$$$
bg33_3_pose6


 20 20  0  0  0  0  0  0  0  0999 V2000
    8.2590    0.4210    1.2010 C   0  0  0  0  0  0  0  0  0  0  0  0
    8.7300   -0.5210    1.7940 O   0  0  0  0  0  0  0  0  0  0  0  0
    7.6760    0.2770   -0.2450 C   0  0  0  0  0  0  0  0  0  0  0  0
    6.5920   -0.5100   -0.4340 C   0  0  0  0  0  0  0  0  0  0  0  0
    6.0560   -0.7710   -1.7450 C   0  0  0  0  0  0  0  0  0  0  0  0
    5.4980   -1.9910   -2.0580 C   0  0  0  0  0  0  0  0  0  0  0  0
    4.9440   -2.2440   -3.2610 C   0  0  0  0  0  0  0  0  0  0  0  0
    4.9470   -1.2400   -4.2030 C   0  0  0  0  0  0  0  0  0  0  0  0
    5.5210   -0.0350   -3.9400 C   0  0  0  0  0  0  0  0  0  0  0  0
    6.0710    0.2010   -2.6990 C   0  0  0  0  0  0  0  0  0  0  0  0
    4.4480   -1.4230   -5.4440 O   0  0  0  0  0  0  0  0  0  0  0  0
    5.3960   -1.7410   -6.4480 C   0  0  0  0  0  0  0  0  0  0  0  0
    8.2790    1.5430    1.7840 O   0  0  0  0  0  0  0  0  0  0  0  0
    7.2650    1.7860    2.8110 C   0  0  0  0  0  0  0  0  0  0  0  0
    6.7110    3.1180    2.6080 C   0  0  0  0  0  0  0  0  0  0  0  0
    5.8480    3.2260    1.3870 C   0  0  0  0  0  0  0  0  0  0  0  0
    7.8690    1.6780    4.2000 C   0  0  0  0  0  0  0  0  0  0  0  0
    6.8420    2.2530    5.2000 C   0  0  0  0  0  0  0  0  0  0  0  0
    8.9860    2.8410    6.2740 C   0  0  0  0  0  0  0  0  0  0  0  0
    7.4680    3.1230    6.2430 C   0  0  0  0  0  0  0  0  0  0  0  0
 20 19  1  0
 18 20  1  0
 17 18  1  0
 14 17  1  0
 15 14  1  0
 16 15  1  0
 13 14  1  0
  1 13  1  0
  2  1  2  0
  3  1  1  0
  4  3  2  0
  5  4  1  0
  6  5  1  0
  7  6  2  0
  8  7  1  0
 11  8  1  0
 12 11  1  0
  9  8  2  0
 10  9  1  0
 10  5  2  0
M  END
> <structure>
bg33_3

> <pose>
6

> <is_reference>
0

> <rmsd_to_reference_A>
8.777

> <vina_score>
-3.8

> <minimizedAffinity>
-4.22290

> <CNNscore>
0.4086407423

> <CNNaffinity>
4.2453193665

> <CNN_VS>
1.7348104715

> <CNNaffinity_variance>
0.3641789854

$$$$
bg33_3_pose7


 20 20  0  0  0  0  0  0  0  0999 V2000
    8.7980   -2.9610    3.1410 C   0  0  0  0  0  0  0  0  0  0  0  0
    9.6150   -3.0820    4.0240 O   0  0  0  0  0  0  0  0  0  0  0  0
    8.3440   -1.5550    2.6240 C   0  0  0  0  0  0  0  0  0  0  0  0
    8.0850   -0.5830    3.5280 C   0  0  0  0  0  0  0  0  0  0  0  0
    7.5700    0.7050    3.1390 C   0  0  0  0  0  0  0  0  0  0  0  0
    7.4030    1.7160    4.0600 C   0  0  0  0  0  0  0  0  0  0  0  0
    6.9710    2.9440    3.7120 C   0  0  0  0  0  0  0  0  0  0  0  0
    6.6850    3.1840    2.3880 C   0  0  0  0  0  0  0  0  0  0  0  0
    6.8050    2.1990    1.4570 C   0  0  0  0  0  0  0  0  0  0  0  0
    7.2580    0.9540    1.8360 C   0  0  0  0  0  0  0  0  0  0  0  0
    6.2120    4.3750    1.9620 O   0  0  0  0  0  0  0  0  0  0  0  0
    6.9500    5.5130    2.3720 C   0  0  0  0  0  0  0  0  0  0  0  0
    8.2990   -4.0210    2.6630 O   0  0  0  0  0  0  0  0  0  0  0  0
    6.8400   -4.1130    2.6080 C   0  0  0  0  0  0  0  0  0  0  0  0
    6.3550   -4.5620    3.9060 C   0  0  0  0  0  0  0  0  0  0  0  0
    6.7090   -5.9860    4.2160 C   0  0  0  0  0  0  0  0  0  0  0  0
    6.4020   -5.0800    1.5230 C   0  0  0  0  0  0  0  0  0  0  0  0
    6.8600   -4.4990    0.1670 C   0  0  0  0  0  0  0  0  0  0  0  0
    6.3210   -2.9200   -1.6530 C   0  0  0  0  0  0  0  0  0  0  0  0
    6.2520   -3.1650   -0.1300 C   0  0  0  0  0  0  0  0  0  0  0  0
 20 19  1  0
 18 20  1  0
 17 18  1  0
 14 17  1  0
 15 14  1  0
 16 15  1  0
 13 14  1  0
  1 13  1  0
  2  1  2  0
  3  1  1  0
  4  3  2  0
  5  4  1  0
  6  5  1  0
  7  6  2  0
  8  7  1  0
 11  8  1  0
 12 11  1  0
  9  8  2  0
 10  9  1  0
 10  5  2  0
M  END
> <structure>
bg33_3

> <pose>
7

> <is_reference>
0

> <rmsd_to_reference_A>
7.440

> <vina_score>
-3.8

> <minimizedAffinity>
-4.04728

> <CNNscore>
0.2626833916

> <CNNaffinity>
4.1022715569

> <CNN_VS>
1.0775985718

> <CNNaffinity_variance>
0.4132575989

$$$$
bg33_3_pose8


 20 20  0  0  0  0  0  0  0  0999 V2000
    6.5940   -4.9420    2.6210 C   0  0  0  0  0  0  0  0  0  0  0  0
    6.7170   -6.0680    3.0460 O   0  0  0  0  0  0  0  0  0  0  0  0
    6.2290   -4.6610    1.1250 C   0  0  0  0  0  0  0  0  0  0  0  0
    6.9310   -3.7220    0.4500 C   0  0  0  0  0  0  0  0  0  0  0  0
    6.5940   -3.3360   -0.8970 C   0  0  0  0  0  0  0  0  0  0  0  0
    7.3030   -3.8150   -1.9760 C   0  0  0  0  0  0  0  0  0  0  0  0
    6.9750   -3.5100   -3.2470 C   0  0  0  0  0  0  0  0  0  0  0  0
    5.8950   -2.6850   -3.4610 C   0  0  0  0  0  0  0  0  0  0  0  0
    5.1930   -2.1650   -2.4180 C   0  0  0  0  0  0  0  0  0  0  0  0
    5.5420   -2.5010   -1.1280 C   0  0  0  0  0  0  0  0  0  0  0  0
    5.5240   -2.2990   -4.7010 O   0  0  0  0  0  0  0  0  0  0  0  0
    4.9740   -0.9970   -4.8020 C   0  0  0  0  0  0  0  0  0  0  0  0
    6.7980   -3.9920    3.4290 O   0  0  0  0  0  0  0  0  0  0  0  0
    8.0880   -3.9600    4.1180 C   0  0  0  0  0  0  0  0  0  0  0  0
    7.8480   -3.7650    5.5420 C   0  0  0  0  0  0  0  0  0  0  0  0
    9.0790   -3.9260    6.3830 C   0  0  0  0  0  0  0  0  0  0  0  0
    8.9600   -2.8400    3.5780 C   0  0  0  0  0  0  0  0  0  0  0  0
    8.1060   -1.5530    3.5600 C   0  0  0  0  0  0  0  0  0  0  0  0
    9.4430   -1.3520    1.4950 C   0  0  0  0  0  0  0  0  0  0  0  0
    8.2580   -0.7700    2.2950 C   0  0  0  0  0  0  0  0  0  0  0  0
 20 19  1  0
 18 20  1  0
 17 18  1  0
 14 17  1  0
 15 14  1  0
 16 15  1  0
 13 14  1  0
  1 13  1  0
  2  1  2  0
  3  1  1  0
  4  3  2  0
  5  4  1  0
  6  5  1  0
  7  6  2  0
  8  7  1  0
 11  8  1  0
 12 11  1  0
  9  8  2  0
 10  9  1  0
 10  5  2  0
M  END
> <structure>
bg33_3

> <pose>
8

> <is_reference>
0

> <rmsd_to_reference_A>
9.740

> <vina_score>
-3.8

> <minimizedAffinity>
-3.86967

> <CNNscore>
0.1587414294

> <CNNaffinity>
3.5367805958

> <CNN_VS>
0.5614336133

> <CNNaffinity_variance>
0.5909920335

$$$$
bg33_3_pose9


 20 20  0  0  0  0  0  0  0  0999 V2000
    6.2580    0.7700   -3.1230 C   0  0  0  0  0  0  0  0  0  0  0  0
    6.7190    1.5360   -3.9360 O   0  0  0  0  0  0  0  0  0  0  0  0
    6.5200    0.9400   -1.5890 C   0  0  0  0  0  0  0  0  0  0  0  0
    6.0810    2.0620   -0.9740 C   0  0  0  0  0  0  0  0  0  0  0  0
    6.3680    2.3380    0.4100 C   0  0  0  0  0  0  0  0  0  0  0  0
    6.8940    1.3700    1.2370 C   0  0  0  0  0  0  0  0  0  0  0  0
    7.2190    1.6180    2.5220 C   0  0  0  0  0  0  0  0  0  0  0  0
    7.0070    2.8860    3.0140 C   0  0  0  0  0  0  0  0  0  0  0  0
    6.4560    3.8560    2.2360 C   0  0  0  0  0  0  0  0  0  0  0  0
    6.1420    3.5790    0.9230 C   0  0  0  0  0  0  0  0  0  0  0  0
    7.2680    3.2060    4.3000 O   0  0  0  0  0  0  0  0  0  0  0  0
    6.8460    2.2620    5.2680 C   0  0  0  0  0  0  0  0  0  0  0  0
    5.5720   -0.1980   -3.5610 O   0  0  0  0  0  0  0  0  0  0  0  0
    6.0750   -1.5490   -3.3100 C   0  0  0  0  0  0  0  0  0  0  0  0
    6.5020   -2.1270   -4.5780 C   0  0  0  0  0  0  0  0  0  0  0  0
    7.2560   -3.4130   -4.4240 C   0  0  0  0  0  0  0  0  0  0  0  0
    5.0020   -2.4150   -2.6760 C   0  0  0  0  0  0  0  0  0  0  0  0
    5.2570   -2.4320   -1.1530 C   0  0  0  0  0  0  0  0  0  0  0  0
    6.8830   -4.0220   -0.1910 C   0  0  0  0  0  0  0  0  0  0  0  0
    6.7000   -2.6170   -0.8050 C   0  0  0  0  0  0  0  0  0  0  0  0
 20 19  1  0
 18 20  1  0
 17 18  1  0
 14 17  1  0
 15 14  1  0
 16 15  1  0
 13 14  1  0
  1 13  1  0
  2  1  2  0
  3  1  1  0
  4  3  2  0
  5  4  1  0
  6  5  1  0
  7  6  2  0
  8  7  1  0
 11  8  1  0
 12 11  1  0
  9  8  2  0
 10  9  1  0
 10  5  2  0
M  END
> <structure>
bg33_3

> <pose>
9

> <is_reference>
0

> <rmsd_to_reference_A>
4.467

> <vina_score>
-3.7

> <minimizedAffinity>
-3.92616

> <CNNscore>
0.2952589989

> <CNNaffinity>
4.1711177826

> <CNN_VS>
1.2315601110

> <CNNaffinity_variance>
0.4504165649

$$$$
