orig_f12_pose0_reference


 20 20  0  0  0  0  0  0  0  0999 V2000
   -2.0110    5.2580    1.4620 C   0  0  0  0  0  0  0  0  0  0  0  0
   -1.3270    4.8960    2.3950 O   0  0  0  0  0  0  0  0  0  0  0  0
   -2.4290    4.3920    0.3520 C   0  0  0  0  0  0  0  0  0  0  0  0
   -1.7530    3.2620    0.1130 C   0  0  0  0  0  0  0  0  0  0  0  0
   -2.0350    2.4030   -1.0500 C   0  0  0  0  0  0  0  0  0  0  0  0
   -3.1230    2.6110   -1.8670 C   0  0  0  0  0  0  0  0  0  0  0  0
   -3.3370    1.8060   -2.9740 C   0  0  0  0  0  0  0  0  0  0  0  0
   -2.4680    0.7870   -3.2570 C   0  0  0  0  0  0  0  0  0  0  0  0
   -1.3710    0.5720   -2.4440 C   0  0  0  0  0  0  0  0  0  0  0  0
   -1.1660    1.3770   -1.3300 C   0  0  0  0  0  0  0  0  0  0  0  0
   -2.6190   -0.0270   -4.3430 O   0  0  0  0  0  0  0  0  0  0  0  0
   -3.8690   -0.0780   -5.0200 C   0  0  0  0  0  0  0  0  0  0  0  0
   -2.4230    6.5090    1.3140 O   0  0  0  0  0  0  0  0  0  0  0  0
   -1.8360    7.5210    2.0960 C   0  0  0  0  0  0  0  0  0  0  0  0
   -1.1360    8.5240    1.1920 C   0  0  0  0  0  0  0  0  0  0  0  0
   -1.5900    8.5110   -0.2560 C   0  0  0  0  0  0  0  0  0  0  0  0
   -2.9210    8.1910    2.9110 C   0  0  0  0  0  0  0  0  0  0  0  0
   -3.5490    7.3000    3.9320 C   0  0  0  0  0  0  0  0  0  0  0  0
   -5.2020    7.1310    5.7940 C   0  0  0  0  0  0  0  0  0  0  0  0
   -4.5810    8.0250    4.7480 C   0  0  0  0  0  0  0  0  0  0  0  0
 20 19  1  0
 18 20  1  0
 17 18  1  0
 14 17  1  0
 15 14  1  0
 16 15  1  0
 13 14  1  0
  1 13  1  0
  2  1  2  0
  3  1  1  0
  4  3  2  0
  5  4  1  0
  6  5  1  0
  7  6  2  0
  8  7  1  0
 11  8  1  0
 12 11  1  0
  9  8  2  0
 10  9  1  0
 10  5  2  0
M  END
> <structure>
orig_f12

> <pose>
0

> <is_reference>
1

> <rmsd_to_reference_A>
0.000

> <vina_score>


> <minimizedAffinity>
-3.65017

> <CNNscore>
0.6347908378

> <CNNaffinity>
4.0391583443

> <CNN_VS>
2.5640206337

> <CNNaffinity_variance>
0.1927340031

$$$$
orig_f12_pose1


 20 20  0  0  0  0  0  0  0  0999 V2000
   -3.3530    2.3610   -2.2420 C   0  0  0  0  0  0  0  0  0  0  0  0
   -3.4210    3.4830   -2.6970 O   0  0  0  0  0  0  0  0  0  0  0  0
   -3.4850    1.1330   -3.0370 C   0  0  0  0  0  0  0  0  0  0  0  0
   -3.3510    1.1960   -4.3670 C   0  0  0  0  0  0  0  0  0  0  0  0
   -3.5860    0.0340   -5.2410 C   0  0  0  0  0  0  0  0  0  0  0  0
   -2.5520   -0.6950   -5.7830 C   0  0  0  0  0  0  0  0  0  0  0  0
   -2.8090   -1.8050   -6.5710 C   0  0  0  0  0  0  0  0  0  0  0  0
   -4.1010   -2.1790   -6.8250 C   0  0  0  0  0  0  0  0  0  0  0  0
   -5.1470   -1.4550   -6.2820 C   0  0  0  0  0  0  0  0  0  0  0  0
   -4.8830   -0.3380   -5.4990 C   0  0  0  0  0  0  0  0  0  0  0  0
   -4.4150   -3.2730   -7.5790 O   0  0  0  0  0  0  0  0  0  0  0  0
   -5.5530   -4.0580   -7.2480 C   0  0  0  0  0  0  0  0  0  0  0  0
   -3.1980    2.1160   -0.9490 O   0  0  0  0  0  0  0  0  0  0  0  0
   -2.4080    2.9880   -0.1760 C   0  0  0  0  0  0  0  0  0  0  0  0
   -3.3040    3.9700    0.5630 C   0  0  0  0  0  0  0  0  0  0  0  0
   -2.8100    5.4040    0.5790 C   0  0  0  0  0  0  0  0  0  0  0  0
   -1.5900    2.1640    0.7940 C   0  0  0  0  0  0  0  0  0  0  0  0
   -0.1700    1.9680    0.3760 C   0  0  0  0  0  0  0  0  0  0  0  0
   -0.4530    0.2310   -1.3930 C   0  0  0  0  0  0  0  0  0  0  0  0
    0.1040    0.5470   -0.0260 C   0  0  0  0  0  0  0  0  0  0  0  0
 20 19  1  0
 18 20  1  0
 17 18  1  0
 14 17  1  0
 15 14  1  0
 16 15  1  0
 13 14  1  0
  1 13  1  0
  2  1  2  0
  3  1  1  0
  4  3  2  0
  5  4  1  0
  6  5  1  0
  7  6  2  0
  8  7  1  0
 11  8  1  0
 12 11  1  0
  9  8  2  0
 10  9  1  0
 10  5  2  0
M  END
> <structure>
orig_f12

> <pose>
1

> <is_reference>
0

> <rmsd_to_reference_A>
5.962

> <vina_score>
-6.0

> <minimizedAffinity>
-6.01485

> <CNNscore>
0.5872983932

> <CNNaffinity>
3.9049110413

> <CNN_VS>
2.2933480740

> <CNNaffinity_variance>
0.9055611491

$$$$
orig_f12_pose2


 20 20  0  0  0  0  0  0  0  0999 V2000
   -5.5910   -0.5690   -5.3340 C   0  0  0  0  0  0  0  0  0  0  0  0
   -6.7900   -0.7490   -5.3380 O   0  0  0  0  0  0  0  0  0  0  0  0
   -4.8100   -0.1920   -4.1490 C   0  0  0  0  0  0  0  0  0  0  0  0
   -4.0650    0.9190   -4.1810 C   0  0  0  0  0  0  0  0  0  0  0  0
   -3.1650    1.2990   -3.0800 C   0  0  0  0  0  0  0  0  0  0  0  0
   -2.0770    0.5330   -2.7250 C   0  0  0  0  0  0  0  0  0  0  0  0
   -1.2300    0.9410   -1.7080 C   0  0  0  0  0  0  0  0  0  0  0  0
   -1.4770    2.1090   -1.0380 C   0  0  0  0  0  0  0  0  0  0  0  0
   -2.5650    2.8860   -1.3890 C   0  0  0  0  0  0  0  0  0  0  0  0
   -3.4170    2.4690   -2.4050 C   0  0  0  0  0  0  0  0  0  0  0  0
   -0.6680    2.5690   -0.0390 O   0  0  0  0  0  0  0  0  0  0  0  0
    0.3930    1.7530    0.4440 C   0  0  0  0  0  0  0  0  0  0  0  0
   -4.8480   -0.6450   -6.4290 O   0  0  0  0  0  0  0  0  0  0  0  0
   -4.4070   -1.9060   -6.8710 C   0  0  0  0  0  0  0  0  0  0  0  0
   -5.2980   -2.3920   -8.0040 C   0  0  0  0  0  0  0  0  0  0  0  0
   -6.0710   -3.6650   -7.7130 C   0  0  0  0  0  0  0  0  0  0  0  0
   -2.9700   -1.7800   -7.3290 C   0  0  0  0  0  0  0  0  0  0  0  0
   -2.0630   -1.1610   -6.3160 C   0  0  0  0  0  0  0  0  0  0  0  0
   -0.4830    0.7060   -5.8230 C   0  0  0  0  0  0  0  0  0  0  0  0
   -1.4520    0.1150   -6.8190 C   0  0  0  0  0  0  0  0  0  0  0  0
 20 19  1  0
 18 20  1  0
 17 18  1  0
 14 17  1  0
 15 14  1  0
 16 15  1  0
 13 14  1  0
  1 13  1  0
  2  1  2  0
  3  1  1  0
  4  3  2  0
  5  4  1  0
  6  5  1  0
  7  6  2  0
  8  7  1  0
 11  8  1  0
 12 11  1  0
  9  8  2  0
 10  9  1  0
 10  5  2  0
M  END
> <structure>
orig_f12

> <pose>
2

> <is_reference>
0

> <rmsd_to_reference_A>
9.798

> <vina_score>
-6.0

> <minimizedAffinity>
-5.24920

> <CNNscore>
0.2752411366

> <CNNaffinity>
3.8940944672

> <CNN_VS>
1.0718150139

> <CNNaffinity_variance>
0.5995238423

$$$$
orig_f12_pose3


 20 20  0  0  0  0  0  0  0  0999 V2000
   -2.6310   -1.0060   -6.4160 C   0  0  0  0  0  0  0  0  0  0  0  0
   -2.0360   -1.0680   -7.4700 O   0  0  0  0  0  0  0  0  0  0  0  0
   -2.1540   -0.2750   -5.2340 C   0  0  0  0  0  0  0  0  0  0  0  0
   -3.0360    0.1250   -4.3120 C   0  0  0  0  0  0  0  0  0  0  0  0
   -2.6530    0.9630   -3.1620 C   0  0  0  0  0  0  0  0  0  0  0  0
   -3.4100    2.0380   -2.7560 C   0  0  0  0  0  0  0  0  0  0  0  0
   -3.0390    2.7820   -1.6470 C   0  0  0  0  0  0  0  0  0  0  0  0
   -1.9060    2.4550   -0.9520 C   0  0  0  0  0  0  0  0  0  0  0  0
   -1.1420    1.3740   -1.3500 C   0  0  0  0  0  0  0  0  0  0  0  0
   -1.5140    0.6380   -2.4680 C   0  0  0  0  0  0  0  0  0  0  0  0
   -1.5020    3.1400    0.1580 O   0  0  0  0  0  0  0  0  0  0  0  0
   -0.7810    2.4660    1.1820 C   0  0  0  0  0  0  0  0  0  0  0  0
   -3.7730   -1.6410   -6.1940 O   0  0  0  0  0  0  0  0  0  0  0  0
   -4.4870   -2.1670   -7.2860 C   0  0  0  0  0  0  0  0  0  0  0  0
   -4.4700   -3.6870   -7.2240 C   0  0  0  0  0  0  0  0  0  0  0  0
   -5.6800   -4.3690   -7.8330 C   0  0  0  0  0  0  0  0  0  0  0  0
   -5.9040   -1.6390   -7.2350 C   0  0  0  0  0  0  0  0  0  0  0  0
   -6.3430   -1.2130   -5.8720 C   0  0  0  0  0  0  0  0  0  0  0  0
   -8.2040   -2.8210   -5.4490 C   0  0  0  0  0  0  0  0  0  0  0  0
   -7.8240   -1.3790   -5.6840 C   0  0  0  0  0  0  0  0  0  0  0  0
 20 19  1  0
 18 20  1  0
 17 18  1  0
 14 17  1  0
 15 14  1  0
 16 15  1  0
 13 14  1  0
  1 13  1  0
  2  1  2  0
  3  1  1  0
  4  3  2  0
  5  4  1  0
  6  5  1  0
  7  6  2  0
  8  7  1  0
 11  8  1  0
 12 11  1  0
  9  8  2  0
 10  9  1  0
 10  5  2  0
M  END
> <structure>
orig_f12

> <pose>
3

> <is_reference>
0

> <rmsd_to_reference_A>
10.100

> <vina_score>
-5.9

> <minimizedAffinity>
-5.63263

> <CNNscore>
0.2765920758

> <CNNaffinity>
3.7624523640

> <CNN_VS>
1.0406645536

> <CNNaffinity_variance>
0.5184407830

$$$$
orig_f12_pose4


 20 20  0  0  0  0  0  0  0  0999 V2000
   -5.3870   -0.6080   -5.6830 C   0  0  0  0  0  0  0  0  0  0  0  0
   -6.1300    0.0500   -6.3780 O   0  0  0  0  0  0  0  0  0  0  0  0
   -4.7600   -0.1250   -4.4460 C   0  0  0  0  0  0  0  0  0  0  0  0
   -3.7700    0.7720   -4.5210 C   0  0  0  0  0  0  0  0  0  0  0  0
   -3.0140    1.2150   -3.3370 C   0  0  0  0  0  0  0  0  0  0  0  0
   -1.8420    0.6070   -2.9470 C   0  0  0  0  0  0  0  0  0  0  0  0
   -1.1370    1.0740   -1.8500 C   0  0  0  0  0  0  0  0  0  0  0  0
   -1.6100    2.1420   -1.1360 C   0  0  0  0  0  0  0  0  0  0  0  0
   -2.7850    2.7610   -1.5210 C   0  0  0  0  0  0  0  0  0  0  0  0
   -3.4920    2.2830   -2.6180 C   0  0  0  0  0  0  0  0  0  0  0  0
   -0.9500    2.6550   -0.0570 O   0  0  0  0  0  0  0  0  0  0  0  0
    0.1290    1.9310    0.5220 C   0  0  0  0  0  0  0  0  0  0  0  0
   -5.0130   -1.8410   -5.9950 O   0  0  0  0  0  0  0  0  0  0  0  0
   -5.1280   -2.2750   -7.3290 C   0  0  0  0  0  0  0  0  0  0  0  0
   -3.7430   -2.5190   -7.9080 C   0  0  0  0  0  0  0  0  0  0  0  0
   -2.5970   -2.3500   -6.9280 C   0  0  0  0  0  0  0  0  0  0  0  0
   -5.9560   -3.5410   -7.3530 C   0  0  0  0  0  0  0  0  0  0  0  0
   -7.4300   -3.3010   -7.3540 C   0  0  0  0  0  0  0  0  0  0  0  0
   -8.4500   -2.5640   -5.1980 C   0  0  0  0  0  0  0  0  0  0  0  0
   -8.0690   -3.7390   -6.0660 C   0  0  0  0  0  0  0  0  0  0  0  0
 20 19  1  0
 18 20  1  0
 17 18  1  0
 14 17  1  0
 15 14  1  0
 16 15  1  0
 13 14  1  0
  1 13  1  0
  2  1  2  0
  3  1  1  0
  4  3  2  0
  5  4  1  0
  6  5  1  0
  7  6  2  0
  8  7  1  0
 11  8  1  0
 12 11  1  0
  9  8  2  0
 10  9  1  0
 10  5  2  0
M  END
> <structure>
orig_f12

> <pose>
4

> <is_reference>
0

> <rmsd_to_reference_A>
10.256

> <vina_score>
-5.9

> <minimizedAffinity>
-5.37299

> <CNNscore>
0.2963902652

> <CNNaffinity>
3.4685318470

> <CNN_VS>
1.0280390978

> <CNNaffinity_variance>
0.9843910336

$$$$
orig_f12_pose5


 20 20  0  0  0  0  0  0  0  0999 V2000
   -3.1370    3.9050    0.3950 C   0  0  0  0  0  0  0  0  0  0  0  0
   -3.9740    4.0720    1.2560 O   0  0  0  0  0  0  0  0  0  0  0  0
   -2.4310    4.9900   -0.3010 C   0  0  0  0  0  0  0  0  0  0  0  0
   -2.7160    6.2600    0.0100 C   0  0  0  0  0  0  0  0  0  0  0  0
   -2.1400    7.4010   -0.7240 C   0  0  0  0  0  0  0  0  0  0  0  0
   -2.2480    7.5220   -2.0900 C   0  0  0  0  0  0  0  0  0  0  0  0
   -1.7260    8.6270   -2.7430 C   0  0  0  0  0  0  0  0  0  0  0  0
   -1.0870    9.6050   -2.0290 C   0  0  0  0  0  0  0  0  0  0  0  0
   -0.9760    9.4930   -0.6550 C   0  0  0  0  0  0  0  0  0  0  0  0
   -1.4930    8.3780   -0.0070 C   0  0  0  0  0  0  0  0  0  0  0  0
   -0.5690   10.7240   -2.6160 O   0  0  0  0  0  0  0  0  0  0  0  0
   -0.9650   11.0780   -3.9350 C   0  0  0  0  0  0  0  0  0  0  0  0
   -2.7960    2.7060   -0.0550 O   0  0  0  0  0  0  0  0  0  0  0  0
   -1.5420    2.5360   -0.6700 C   0  0  0  0  0  0  0  0  0  0  0  0
   -0.5580    1.9480    0.3300 C   0  0  0  0  0  0  0  0  0  0  0  0
   -0.0190    0.5750   -0.0290 C   0  0  0  0  0  0  0  0  0  0  0  0
   -1.7110    1.6230   -1.8650 C   0  0  0  0  0  0  0  0  0  0  0  0
   -3.0240    1.7720   -2.5610 C   0  0  0  0  0  0  0  0  0  0  0  0
   -3.9640    0.5590   -4.5290 C   0  0  0  0  0  0  0  0  0  0  0  0
   -3.5320    0.4590   -3.0850 C   0  0  0  0  0  0  0  0  0  0  0  0
 20 19  1  0
 18 20  1  0
 17 18  1  0
 14 17  1  0
 15 14  1  0
 16 15  1  0
 13 14  1  0
  1 13  1  0
  2  1  2  0
  3  1  1  0
  4  3  2  0
  5  4  1  0
  6  5  1  0
  7  6  2  0
  8  7  1  0
 11  8  1  0
 12 11  1  0
  9  8  2  0
 10  9  1  0
 10  5  2  0
M  END
> <structure>
orig_f12

> <pose>
5

> <is_reference>
0

> <rmsd_to_reference_A>
7.633

> <vina_score>
-5.9

> <minimizedAffinity>
-5.79387

> <CNNscore>
0.8229230046

> <CNNaffinity>
4.4082760811

> <CNN_VS>
3.6276717186

> <CNNaffinity_variance>
0.4519197047

$$$$
orig_f12_pose6


 20 20  0  0  0  0  0  0  0  0999 V2000
   -2.8600    1.8040   -2.2110 C   0  0  0  0  0  0  0  0  0  0  0  0
   -3.9160    2.2720   -1.8420 O   0  0  0  0  0  0  0  0  0  0  0  0
   -2.6860    1.0010   -3.4280 C   0  0  0  0  0  0  0  0  0  0  0  0
   -3.7560    0.7110   -4.1790 C   0  0  0  0  0  0  0  0  0  0  0  0
   -3.6820   -0.1850   -5.3460 C   0  0  0  0  0  0  0  0  0  0  0  0
   -2.4840   -0.5400   -5.9220 C   0  0  0  0  0  0  0  0  0  0  0  0
   -2.4500   -1.4150   -6.9960 C   0  0  0  0  0  0  0  0  0  0  0  0
   -3.6160   -1.9260   -7.4990 C   0  0  0  0  0  0  0  0  0  0  0  0
   -4.8240   -1.5780   -6.9250 C   0  0  0  0  0  0  0  0  0  0  0  0
   -4.8530   -0.6930   -5.8540 C   0  0  0  0  0  0  0  0  0  0  0  0
   -3.6430   -2.8040   -8.5440 O   0  0  0  0  0  0  0  0  0  0  0  0
   -4.5220   -3.9220   -8.5060 C   0  0  0  0  0  0  0  0  0  0  0  0
   -1.7370    1.9260   -1.5180 O   0  0  0  0  0  0  0  0  0  0  0  0
   -1.8000    2.3640   -0.1820 C   0  0  0  0  0  0  0  0  0  0  0  0
   -0.5420    1.9360    0.5560 C   0  0  0  0  0  0  0  0  0  0  0  0
    0.1360    0.6940    0.0060 C   0  0  0  0  0  0  0  0  0  0  0  0
   -1.9460    3.8710   -0.1750 C   0  0  0  0  0  0  0  0  0  0  0  0
   -3.0800    4.3650    0.6620 C   0  0  0  0  0  0  0  0  0  0  0  0
   -2.6710    6.7800    0.1820 C   0  0  0  0  0  0  0  0  0  0  0  0
   -2.7930    5.7180    1.2480 C   0  0  0  0  0  0  0  0  0  0  0  0
 20 19  1  0
 18 20  1  0
 17 18  1  0
 14 17  1  0
 15 14  1  0
 16 15  1  0
 13 14  1  0
  1 13  1  0
  2  1  2  0
  3  1  1  0
  4  3  2  0
  5  4  1  0
  6  5  1  0
  7  6  2  0
  8  7  1  0
 11  8  1  0
 12 11  1  0
  9  8  2  0
 10  9  1  0
 10  5  2  0
M  END
> <structure>
orig_f12

> <pose>
6

> <is_reference>
0

> <rmsd_to_reference_A>
5.519

> <vina_score>
-5.8

> <minimizedAffinity>
-6.08074

> <CNNscore>
0.5677767396

> <CNNaffinity>
3.7037220001

> <CNN_VS>
2.1028871536

> <CNNaffinity_variance>
0.6613352299

$$$$
orig_f12_pose7


 20 20  0  0  0  0  0  0  0  0999 V2000
   -2.9850   -2.1900   -7.6860 C   0  0  0  0  0  0  0  0  0  0  0  0
   -1.9190   -2.6730   -8.0010 O   0  0  0  0  0  0  0  0  0  0  0  0
   -3.2410   -1.5010   -6.4140 C   0  0  0  0  0  0  0  0  0  0  0  0
   -2.4980   -0.4380   -6.0850 C   0  0  0  0  0  0  0  0  0  0  0  0
   -2.6140    0.2330   -4.7780 C   0  0  0  0  0  0  0  0  0  0  0  0
   -3.8300    0.6130   -4.2560 C   0  0  0  0  0  0  0  0  0  0  0  0
   -3.9050    1.2090   -3.0080 C   0  0  0  0  0  0  0  0  0  0  0  0
   -2.7630    1.4340   -2.2870 C   0  0  0  0  0  0  0  0  0  0  0  0
   -1.5380    1.0530   -2.8020 C   0  0  0  0  0  0  0  0  0  0  0  0
   -1.4680    0.4640   -4.0590 C   0  0  0  0  0  0  0  0  0  0  0  0
   -2.7780    2.0010   -1.0450 O   0  0  0  0  0  0  0  0  0  0  0  0
   -1.6170    1.9380   -0.2250 C   0  0  0  0  0  0  0  0  0  0  0  0
   -4.0670   -2.2760   -8.4450 O   0  0  0  0  0  0  0  0  0  0  0  0
   -5.2880   -2.6560   -7.8580 C   0  0  0  0  0  0  0  0  0  0  0  0
   -6.3680   -1.6500   -8.2280 C   0  0  0  0  0  0  0  0  0  0  0  0
   -6.7580   -0.6890   -7.1200 C   0  0  0  0  0  0  0  0  0  0  0  0
   -5.6480   -4.0420   -8.3480 C   0  0  0  0  0  0  0  0  0  0  0  0
   -7.0220   -4.4820   -7.9630 C   0  0  0  0  0  0  0  0  0  0  0  0
   -8.3330   -4.2550   -5.8510 C   0  0  0  0  0  0  0  0  0  0  0  0
   -7.1060   -4.8420   -6.5070 C   0  0  0  0  0  0  0  0  0  0  0  0
 20 19  1  0
 18 20  1  0
 17 18  1  0
 14 17  1  0
 15 14  1  0
 16 15  1  0
 13 14  1  0
  1 13  1  0
  2  1  2  0
  3  1  1  0
  4  3  2  0
  5  4  1  0
  6  5  1  0
  7  6  2  0
  8  7  1  0
 11  8  1  0
 12 11  1  0
  9  8  2  0
 10  9  1  0
 10  5  2  0
M  END
> <structure>
orig_f12

> <pose>
7

> <is_reference>
0

> <rmsd_to_reference_A>
11.055

> <vina_score>
-5.7

> <minimizedAffinity>
-5.41583

> <CNNscore>
0.4085071683

> <CNNaffinity>
3.9884045124

> <CNN_VS>
1.6292918921

> <CNNaffinity_variance>
0.3656559885

$$$$
orig_f12_pose8


 20 20  0  0  0  0  0  0  0  0999 V2000
   -3.6650    1.5760   -3.3410 C   0  0  0  0  0  0  0  0  0  0  0  0
   -4.2990    2.5440   -3.7040 O   0  0  0  0  0  0  0  0  0  0  0  0
   -3.4840    0.3550   -4.1360 C   0  0  0  0  0  0  0  0  0  0  0  0
   -4.1550    0.2160   -5.2860 C   0  0  0  0  0  0  0  0  0  0  0  0
   -4.1180   -1.0250   -6.0780 C   0  0  0  0  0  0  0  0  0  0  0  0
   -5.2640   -1.6430   -6.5240 C   0  0  0  0  0  0  0  0  0  0  0  0
   -5.1910   -2.7890   -7.2980 C   0  0  0  0  0  0  0  0  0  0  0  0
   -3.9710   -3.3220   -7.6180 C   0  0  0  0  0  0  0  0  0  0  0  0
   -2.8140   -2.7070   -7.1770 C   0  0  0  0  0  0  0  0  0  0  0  0
   -2.8940   -1.5620   -6.3930 C   0  0  0  0  0  0  0  0  0  0  0  0
   -3.8370   -4.4390   -8.3920 O   0  0  0  0  0  0  0  0  0  0  0  0
   -3.3590   -4.3220   -9.7260 C   0  0  0  0  0  0  0  0  0  0  0  0
   -3.0990    1.4930   -2.1450 O   0  0  0  0  0  0  0  0  0  0  0  0
   -2.4950    2.6380   -1.5930 C   0  0  0  0  0  0  0  0  0  0  0  0
   -3.3950    3.2200   -0.5140 C   0  0  0  0  0  0  0  0  0  0  0  0
   -2.7000    4.1270    0.4840 C   0  0  0  0  0  0  0  0  0  0  0  0
   -1.1500    2.2450   -1.0220 C   0  0  0  0  0  0  0  0  0  0  0  0
   -0.9060    0.7720   -1.0030 C   0  0  0  0  0  0  0  0  0  0  0  0
    1.0340    1.4860    0.3940 C   0  0  0  0  0  0  0  0  0  0  0  0
    0.0590    0.3780    0.0790 C   0  0  0  0  0  0  0  0  0  0  0  0
 20 19  1  0
 18 20  1  0
 17 18  1  0
 14 17  1  0
 15 14  1  0
 16 15  1  0
 13 14  1  0
  1 13  1  0
  2  1  2  0
  3  1  1  0
  4  3  2  0
  5  4  1  0
  6  5  1  0
  7  6  2  0
  8  7  1  0
 11  8  1  0
 12 11  1  0
  9  8  2  0
 10  9  1  0
 10  5  2  0
M  END
> <structure>
orig_f12

> <pose>
8

> <is_reference>
0

> <rmsd_to_reference_A>
6.900

> <vina_score>
-5.7

> <minimizedAffinity>
-5.58938

> <CNNscore>
0.5626381636

> <CNNaffinity>
3.7603313923

> <CNN_VS>
2.1157059669

> <CNNaffinity_variance>
0.6213707328

$$$$
orig_f12_pose9


 20 20  0  0  0  0  0  0  0  0999 V2000
   -4.2490   -1.7620   -6.9670 C   0  0  0  0  0  0  0  0  0  0  0  0
   -3.4300   -1.8050   -7.8590 O   0  0  0  0  0  0  0  0  0  0  0  0
   -4.0890   -0.9900   -5.7280 C   0  0  0  0  0  0  0  0  0  0  0  0
   -3.0280   -0.1860   -5.5900 C   0  0  0  0  0  0  0  0  0  0  0  0
   -2.7340    0.5280   -4.3350 C   0  0  0  0  0  0  0  0  0  0  0  0
   -1.5050    0.4520   -3.7200 C   0  0  0  0  0  0  0  0  0  0  0  0
   -1.2520    1.1660   -2.5600 C   0  0  0  0  0  0  0  0  0  0  0  0
   -2.2330    1.9480   -2.0110 C   0  0  0  0  0  0  0  0  0  0  0  0
   -3.4690    2.0330   -2.6230 C   0  0  0  0  0  0  0  0  0  0  0  0
   -3.7200    1.3070   -3.7810 C   0  0  0  0  0  0  0  0  0  0  0  0
   -2.0350    2.6860   -0.8790 O   0  0  0  0  0  0  0  0  0  0  0  0
   -1.6940    2.0360    0.3390 C   0  0  0  0  0  0  0  0  0  0  0  0
   -5.3770   -2.4570   -6.9910 O   0  0  0  0  0  0  0  0  0  0  0  0
   -6.5920   -1.8010   -6.7170 C   0  0  0  0  0  0  0  0  0  0  0  0
   -7.0970   -1.1140   -7.9770 C   0  0  0  0  0  0  0  0  0  0  0  0
   -7.6540    0.2820   -7.7690 C   0  0  0  0  0  0  0  0  0  0  0  0
   -7.5910   -2.8240   -6.2210 C   0  0  0  0  0  0  0  0  0  0  0  0
   -8.5000   -2.3130   -5.1510 C   0  0  0  0  0  0  0  0  0  0  0  0
   -8.6500   -0.9440   -3.0700 C   0  0  0  0  0  0  0  0  0  0  0  0
   -7.8250   -1.2860   -4.2870 C   0  0  0  0  0  0  0  0  0  0  0  0
 20 19  1  0
 18 20  1  0
 17 18  1  0
 14 17  1  0
 15 14  1  0
 16 15  1  0
 13 14  1  0
  1 13  1  0
  2  1  2  0
  3  1  1  0
  4  3  2  0
  5  4  1  0
  6  5  1  0
  7  6  2  0
  8  7  1  0
 11  8  1  0
 12 11  1  0
  9  8  2  0
 10  9  1  0
 10  5  2  0
M  END
> <structure>
orig_f12

> <pose>
9

> <is_reference>
0

> <rmsd_to_reference_A>
9.905

> <vina_score>
-5.6

> <minimizedAffinity>
-5.36753

> <CNNscore>
0.3163780272

> <CNNaffinity>
3.7015266418

> <CNN_VS>
1.1710816622

> <CNNaffinity_variance>
0.7744647861

$$$$
