shuffle_control_pose0_reference


 20 20  0  0  0  0  0  0  0  0999 V2000
    4.1170   -1.5090   -0.8580 C   0  0  0  0  0  0  0  0  0  0  0  0
    3.2550   -2.3360   -0.9920 O   0  0  0  0  0  0  0  0  0  0  0  0
    3.8990   -0.1560   -0.2930 C   0  0  0  0  0  0  0  0  0  0  0  0
    2.6790    0.2390    0.0840 C   0  0  0  0  0  0  0  0  0  0  0  0
    2.3760    1.5830    0.6300 C   0  0  0  0  0  0  0  0  0  0  0  0
    3.3570    2.4670    0.9960 C   0  0  0  0  0  0  0  0  0  0  0  0
    3.0280    3.7200    1.5030 C   0  0  0  0  0  0  0  0  0  0  0  0
    1.7160    4.0890    1.6470 C   0  0  0  0  0  0  0  0  0  0  0  0
    0.7290    3.2060    1.2840 C   0  0  0  0  0  0  0  0  0  0  0  0
    1.0560    1.9530    0.7790 C   0  0  0  0  0  0  0  0  0  0  0  0
    1.3290    5.3040    2.1310 O   0  0  0  0  0  0  0  0  0  0  0  0
    2.3020    6.2490    2.5340 C   0  0  0  0  0  0  0  0  0  0  0  0
    5.3820   -1.7470   -1.2200 O   0  0  0  0  0  0  0  0  0  0  0  0
    5.7500   -3.0060   -1.7450 C   0  0  0  0  0  0  0  0  0  0  0  0
    6.4270   -2.8280   -3.0950 C   0  0  0  0  0  0  0  0  0  0  0  0
    5.8300   -1.7770   -3.9670 C   0  0  0  0  0  0  0  0  0  0  0  0
    6.7210   -3.6600   -0.7890 C   0  0  0  0  0  0  0  0  0  0  0  0
    6.2840   -3.6210    0.6400 C   0  0  0  0  0  0  0  0  0  0  0  0
    6.8190   -4.2750    2.9870 C   0  0  0  0  0  0  0  0  0  0  0  0
    7.2300   -4.3670    1.5440 C   0  0  0  0  0  0  0  0  0  0  0  0
 20 19  1  0
 18 20  1  0
 17 18  1  0
 14 17  1  0
 15 14  1  0
 16 15  1  0
 13 14  1  0
  1 13  1  0
  2  1  2  0
  3  1  1  0
  4  3  2  0
  5  4  1  0
  6  5  1  0
  7  6  2  0
  8  7  1  0
 11  8  1  0
 12 11  1  0
  9  8  2  0
 10  9  1  0
 10  5  2  0
M  END
> <structure>
shuffle_control

> <pose>
0

> <is_reference>
1

> <rmsd_to_reference_A>
0.000

> <vina_score>


> <minimizedAffinity>
-3.24601

> <CNNscore>
0.3856347203

> <CNNaffinity>
4.2701911926

> <CNN_VS>
1.6467339993

> <CNNaffinity_variance>
0.3301750422

$$$$
shuffle_control_pose1


 20 20  0  0  0  0  0  0  0  0999 V2000
   -0.4340    4.1370    2.0760 C   0  0  0  0  0  0  0  0  0  0  0  0
   -0.4400    4.2640    3.2710 O   0  0  0  0  0  0  0  0  0  0  0  0
    0.4620    3.2180    1.3350 C   0  0  0  0  0  0  0  0  0  0  0  0
    1.5400    2.6920    1.9260 C   0  0  0  0  0  0  0  0  0  0  0  0
    2.4980    1.7890    1.2450 C   0  0  0  0  0  0  0  0  0  0  0  0
    3.7090    2.2230    0.7720 C   0  0  0  0  0  0  0  0  0  0  0  0
    4.5800    1.3410    0.1400 C   0  0  0  0  0  0  0  0  0  0  0  0
    4.2390    0.0240   -0.0220 C   0  0  0  0  0  0  0  0  0  0  0  0
    3.0260   -0.4160    0.4480 C   0  0  0  0  0  0  0  0  0  0  0  0
    2.1540    0.4640    1.0780 C   0  0  0  0  0  0  0  0  0  0  0  0
    5.0510   -0.8910   -0.6260 O   0  0  0  0  0  0  0  0  0  0  0  0
    4.5000   -1.8620   -1.4950 C   0  0  0  0  0  0  0  0  0  0  0  0
   -1.2600    4.8370    1.2910 O   0  0  0  0  0  0  0  0  0  0  0  0
   -0.8720    5.1880   -0.0210 C   0  0  0  0  0  0  0  0  0  0  0  0
   -1.9780    4.8330   -1.0030 C   0  0  0  0  0  0  0  0  0  0  0  0
   -2.5110    3.4470   -0.8780 C   0  0  0  0  0  0  0  0  0  0  0  0
   -0.6310    6.6800   -0.0690 C   0  0  0  0  0  0  0  0  0  0  0  0
    0.7930    7.0710    0.1600 C   0  0  0  0  0  0  0  0  0  0  0  0
    2.9400    5.8030    0.2270 C   0  0  0  0  0  0  0  0  0  0  0  0
    1.7530    6.1990   -0.6060 C   0  0  0  0  0  0  0  0  0  0  0  0
 20 19  1  0
 18 20  1  0
 17 18  1  0
 14 17  1  0
 15 14  1  0
 16 15  1  0
 13 14  1  0
  1 13  1  0
  2  1  2  0
  3  1  1  0
  4  3  2  0
  5  4  1  0
  6  5  1  0
  7  6  2  0
  8  7  1  0
 11  8  1  0
 12 11  1  0
  9  8  2  0
 10  9  1  0
 10  5  2  0
M  END
> <structure>
shuffle_control

> <pose>
1

> <is_reference>
0

> <rmsd_to_reference_A>
8.376

> <vina_score>
-5.1

> <minimizedAffinity>
-5.07500

> <CNNscore>
0.2147341520

> <CNNaffinity>
3.9195396900

> <CNN_VS>
0.8416590095

> <CNNaffinity_variance>
0.2487184405

$$$$
shuffle_control_pose2


 20 20  0  0  0  0  0  0  0  0999 V2000
   -0.2790    3.9400    1.7030 C   0  0  0  0  0  0  0  0  0  0  0  0
   -0.0730    4.4860    2.7540 O   0  0  0  0  0  0  0  0  0  0  0  0
    0.6990    3.0730    1.0030 C   0  0  0  0  0  0  0  0  0  0  0  0
    1.5610    2.3210    1.6930 C   0  0  0  0  0  0  0  0  0  0  0  0
    2.5860    1.4520    1.0670 C   0  0  0  0  0  0  0  0  0  0  0  0
    2.3890    0.1110    0.8620 C   0  0  0  0  0  0  0  0  0  0  0  0
    3.3780   -0.6670    0.2700 C   0  0  0  0  0  0  0  0  0  0  0  0
    4.5670   -0.1060   -0.1160 C   0  0  0  0  0  0  0  0  0  0  0  0
    4.7710    1.2360    0.0890 C   0  0  0  0  0  0  0  0  0  0  0  0
    3.7850    2.0160    0.6830 C   0  0  0  0  0  0  0  0  0  0  0  0
    5.5720   -0.8140   -0.7070 O   0  0  0  0  0  0  0  0  0  0  0  0
    6.4910   -1.5380    0.0870 C   0  0  0  0  0  0  0  0  0  0  0  0
   -1.4420    4.0750    1.0570 O   0  0  0  0  0  0  0  0  0  0  0  0
   -1.4820    4.0520   -0.3550 C   0  0  0  0  0  0  0  0  0  0  0  0
   -2.6130    3.1530   -0.8290 C   0  0  0  0  0  0  0  0  0  0  0  0
   -3.6000    3.8050   -1.7360 C   0  0  0  0  0  0  0  0  0  0  0  0
   -1.7290    5.4580   -0.8510 C   0  0  0  0  0  0  0  0  0  0  0  0
   -0.6230    6.0070   -1.6930 C   0  0  0  0  0  0  0  0  0  0  0  0
   -1.3220    5.4420   -4.0200 C   0  0  0  0  0  0  0  0  0  0  0  0
   -1.1220    6.5380   -3.0110 C   0  0  0  0  0  0  0  0  0  0  0  0
 20 19  1  0
 18 20  1  0
 17 18  1  0
 14 17  1  0
 15 14  1  0
 16 15  1  0
 13 14  1  0
  1 13  1  0
  2  1  2  0
  3  1  1  0
  4  3  2  0
  5  4  1  0
  6  5  1  0
  7  6  2  0
  8  7  1  0
 11  8  1  0
 12 11  1  0
  9  8  2  0
 10  9  1  0
 10  5  2  0
M  END
> <structure>
shuffle_control

> <pose>
2

> <is_reference>
0

> <rmsd_to_reference_A>
8.750

> <vina_score>
-5.0

> <minimizedAffinity>
-5.31436

> <CNNscore>
0.2843203545

> <CNNaffinity>
3.7038688660

> <CNN_VS>
1.0530853271

> <CNNaffinity_variance>
0.5066035390

$$$$
shuffle_control_pose3


 20 20  0  0  0  0  0  0  0  0999 V2000
    0.2880    4.1290    2.4000 C   0  0  0  0  0  0  0  0  0  0  0  0
   -0.3150    4.2830    3.4290 O   0  0  0  0  0  0  0  0  0  0  0  0
    1.1580    2.9650    2.1060 C   0  0  0  0  0  0  0  0  0  0  0  0
    2.0260    3.0010    1.0900 C   0  0  0  0  0  0  0  0  0  0  0  0
    2.9090    1.8700    0.7160 C   0  0  0  0  0  0  0  0  0  0  0  0
    4.2100    2.0510    0.3260 C   0  0  0  0  0  0  0  0  0  0  0  0
    5.0040    0.9610   -0.0160 C   0  0  0  0  0  0  0  0  0  0  0  0
    4.4960   -0.3110    0.0310 C   0  0  0  0  0  0  0  0  0  0  0  0
    3.1930   -0.4970    0.4190 C   0  0  0  0  0  0  0  0  0  0  0  0
    2.3970    0.5910    0.7590 C   0  0  0  0  0  0  0  0  0  0  0  0
    5.2250   -1.4200   -0.2850 O   0  0  0  0  0  0  0  0  0  0  0  0
    6.4690   -1.2860   -0.9470 C   0  0  0  0  0  0  0  0  0  0  0  0
    0.2220    5.0210    1.4060 O   0  0  0  0  0  0  0  0  0  0  0  0
   -1.0030    5.2710    0.7500 C   0  0  0  0  0  0  0  0  0  0  0  0
   -1.2810    6.7650    0.7200 C   0  0  0  0  0  0  0  0  0  0  0  0
   -2.1650    7.2650    1.8110 C   0  0  0  0  0  0  0  0  0  0  0  0
   -0.9020    4.7600   -0.6690 C   0  0  0  0  0  0  0  0  0  0  0  0
   -1.3260    3.3360   -0.8320 C   0  0  0  0  0  0  0  0  0  0  0  0
   -3.4120    4.1970   -1.8950 C   0  0  0  0  0  0  0  0  0  0  0  0
   -2.8220    3.1970   -0.9400 C   0  0  0  0  0  0  0  0  0  0  0  0
 20 19  1  0
 18 20  1  0
 17 18  1  0
 14 17  1  0
 15 14  1  0
 16 15  1  0
 13 14  1  0
  1 13  1  0
  2  1  2  0
  3  1  1  0
  4  3  2  0
  5  4  1  0
  6  5  1  0
  7  6  2  0
  8  7  1  0
 11  8  1  0
 12 11  1  0
  9  8  2  0
 10  9  1  0
 10  5  2  0
M  END
> <structure>
shuffle_control

> <pose>
3

> <is_reference>
0

> <rmsd_to_reference_A>
8.758

> <vina_score>
-5.0

> <minimizedAffinity>
-5.19407

> <CNNscore>
0.3312996328

> <CNNaffinity>
3.9268035889

> <CNN_VS>
1.3009486198

> <CNNaffinity_variance>
0.6027979255

$$$$
shuffle_control_pose4


 20 20  0  0  0  0  0  0  0  0999 V2000
   -0.1620    3.9970    2.2050 C   0  0  0  0  0  0  0  0  0  0  0  0
   -0.5830    4.3210    3.2830 O   0  0  0  0  0  0  0  0  0  0  0  0
    1.0410    3.1560    1.9940 C   0  0  0  0  0  0  0  0  0  0  0  0
    1.1750    2.4210    0.8860 C   0  0  0  0  0  0  0  0  0  0  0  0
    2.3310    1.5350    0.6160 C   0  0  0  0  0  0  0  0  0  0  0  0
    2.2160    0.1700    0.5600 C   0  0  0  0  0  0  0  0  0  0  0  0
    3.3280   -0.6240    0.3010 C   0  0  0  0  0  0  0  0  0  0  0  0
    4.5580   -0.0540    0.1010 C   0  0  0  0  0  0  0  0  0  0  0  0
    4.6800    1.3120    0.1580 C   0  0  0  0  0  0  0  0  0  0  0  0
    3.5700    2.1080    0.4180 C   0  0  0  0  0  0  0  0  0  0  0  0
    5.6840   -0.7770   -0.1630 O   0  0  0  0  0  0  0  0  0  0  0  0
    5.9180   -1.2740   -1.4670 C   0  0  0  0  0  0  0  0  0  0  0  0
   -0.7600    4.3810    1.0720 O   0  0  0  0  0  0  0  0  0  0  0  0
   -1.0350    5.7470    0.8370 C   0  0  0  0  0  0  0  0  0  0  0  0
    0.2660    6.5240    0.7070 C   0  0  0  0  0  0  0  0  0  0  0  0
    1.1770    6.0520   -0.3740 C   0  0  0  0  0  0  0  0  0  0  0  0
   -1.8120    5.8650   -0.4540 C   0  0  0  0  0  0  0  0  0  0  0  0
   -2.0820    4.5550   -1.1210 C   0  0  0  0  0  0  0  0  0  0  0  0
   -1.4200    5.9840   -3.0550 C   0  0  0  0  0  0  0  0  0  0  0  0
   -1.8280    4.6090   -2.6050 C   0  0  0  0  0  0  0  0  0  0  0  0
 20 19  1  0
 18 20  1  0
 17 18  1  0
 14 17  1  0
 15 14  1  0
 16 15  1  0
 13 14  1  0
  1 13  1  0
  2  1  2  0
  3  1  1  0
  4  3  2  0
  5  4  1  0
  6  5  1  0
  7  6  2  0
  8  7  1  0
 11  8  1  0
 12 11  1  0
  9  8  2  0
 10  9  1  0
 10  5  2  0
M  END
> <structure>
shuffle_control

> <pose>
4

> <is_reference>
0

> <rmsd_to_reference_A>
8.713

> <vina_score>
-4.9

> <minimizedAffinity>
-5.01723

> <CNNscore>
0.1927621067

> <CNNaffinity>
3.6467072964

> <CNN_VS>
0.7029469609

> <CNNaffinity_variance>
0.5625048876

$$$$
shuffle_control_pose5


 20 20  0  0  0  0  0  0  0  0999 V2000
   -0.5780    3.8900    1.3150 C   0  0  0  0  0  0  0  0  0  0  0  0
   -0.5970    4.2640    2.4570 O   0  0  0  0  0  0  0  0  0  0  0  0
    0.5000    3.0630    0.7220 C   0  0  0  0  0  0  0  0  0  0  0  0
    1.3290    2.3610    1.5010 C   0  0  0  0  0  0  0  0  0  0  0  0
    2.4470    1.5350    0.9860 C   0  0  0  0  0  0  0  0  0  0  0  0
    3.6610    2.0700    0.6440 C   0  0  0  0  0  0  0  0  0  0  0  0
    4.6840    1.2570    0.1670 C   0  0  0  0  0  0  0  0  0  0  0  0
    4.4920   -0.0930    0.0280 C   0  0  0  0  0  0  0  0  0  0  0  0
    3.2760   -0.6340    0.3660 C   0  0  0  0  0  0  0  0  0  0  0  0
    2.2530    0.1770    0.8420 C   0  0  0  0  0  0  0  0  0  0  0  0
    5.4560   -0.9430   -0.4280 O   0  0  0  0  0  0  0  0  0  0  0  0
    6.1500   -0.6510   -1.6270 C   0  0  0  0  0  0  0  0  0  0  0  0
   -1.5570    4.1990    0.4580 O   0  0  0  0  0  0  0  0  0  0  0  0
   -1.2620    4.8620   -0.7540 C   0  0  0  0  0  0  0  0  0  0  0  0
   -1.9190    4.1360   -1.9170 C   0  0  0  0  0  0  0  0  0  0  0  0
   -3.3950    3.9690   -1.8040 C   0  0  0  0  0  0  0  0  0  0  0  0
   -1.8100    6.2680   -0.6780 C   0  0  0  0  0  0  0  0  0  0  0  0
   -1.3060    7.1750   -1.7540 C   0  0  0  0  0  0  0  0  0  0  0  0
   -3.7320    7.7390   -1.8890 C   0  0  0  0  0  0  0  0  0  0  0  0
   -2.4190    7.7030   -2.6200 C   0  0  0  0  0  0  0  0  0  0  0  0
 20 19  1  0
 18 20  1  0
 17 18  1  0
 14 17  1  0
 15 14  1  0
 16 15  1  0
 13 14  1  0
  1 13  1  0
  2  1  2  0
  3  1  1  0
  4  3  2  0
  5  4  1  0
  6  5  1  0
  7  6  2  0
  8  7  1  0
 11  8  1  0
 12 11  1  0
  9  8  2  0
 10  9  1  0
 10  5  2  0
M  END
> <structure>
shuffle_control

> <pose>
5

> <is_reference>
0

> <rmsd_to_reference_A>
9.200

> <vina_score>
-4.8

> <minimizedAffinity>
-5.17285

> <CNNscore>
0.2731756270

> <CNNaffinity>
3.5195140839

> <CNN_VS>
0.9614454508

> <CNNaffinity_variance>
0.7602205276

$$$$
shuffle_control_pose6


 20 20  0  0  0  0  0  0  0  0999 V2000
   -2.1560    3.3770   -0.6610 C   0  0  0  0  0  0  0  0  0  0  0  0
   -3.1690    2.7570   -0.4790 O   0  0  0  0  0  0  0  0  0  0  0  0
   -0.8040    2.7720   -0.7190 C   0  0  0  0  0  0  0  0  0  0  0  0
    0.0520    2.9110    0.2980 C   0  0  0  0  0  0  0  0  0  0  0  0
    1.4280    2.3620    0.3040 C   0  0  0  0  0  0  0  0  0  0  0  0
    2.5300    3.1380    0.5500 C   0  0  0  0  0  0  0  0  0  0  0  0
    3.8040    2.5810    0.5470 C   0  0  0  0  0  0  0  0  0  0  0  0
    3.9790    1.2460    0.2950 C   0  0  0  0  0  0  0  0  0  0  0  0
    2.8780    0.4630    0.0440 C   0  0  0  0  0  0  0  0  0  0  0  0
    1.6040    1.0190    0.0450 C   0  0  0  0  0  0  0  0  0  0  0  0
    5.2000    0.6390    0.2840 O   0  0  0  0  0  0  0  0  0  0  0  0
    5.3070   -0.7320   -0.0490 C   0  0  0  0  0  0  0  0  0  0  0  0
   -2.1630    4.7030   -0.8310 O   0  0  0  0  0  0  0  0  0  0  0  0
   -1.5840    5.2790   -1.9830 C   0  0  0  0  0  0  0  0  0  0  0  0
   -2.6720    5.6680   -2.9720 C   0  0  0  0  0  0  0  0  0  0  0  0
   -4.0560    5.6710   -2.4190 C   0  0  0  0  0  0  0  0  0  0  0  0
   -0.8260    6.5200   -1.5710 C   0  0  0  0  0  0  0  0  0  0  0  0
    0.5090    6.2400   -0.9600 C   0  0  0  0  0  0  0  0  0  0  0  0
   -0.1040    6.3930    1.4540 C   0  0  0  0  0  0  0  0  0  0  0  0
    0.7080    6.9830    0.3350 C   0  0  0  0  0  0  0  0  0  0  0  0
 20 19  1  0
 18 20  1  0
 17 18  1  0
 14 17  1  0
 15 14  1  0
 16 15  1  0
 13 14  1  0
  1 13  1  0
  2  1  2  0
  3  1  1  0
  4  3  2  0
  5  4  1  0
  6  5  1  0
  7  6  2  0
  8  7  1  0
 11  8  1  0
 12 11  1  0
  9  8  2  0
 10  9  1  0
 10  5  2  0
M  END
> <structure>
shuffle_control

> <pose>
6

> <is_reference>
0

> <rmsd_to_reference_A>
8.601

> <vina_score>
-4.7

> <minimizedAffinity>
-4.71108

> <CNNscore>
0.1934888661

> <CNNaffinity>
3.5714132786

> <CNN_VS>
0.6910287142

> <CNNaffinity_variance>
0.5399754047

$$$$
shuffle_control_pose7


 20 20  0  0  0  0  0  0  0  0999 V2000
   -2.2910    3.1510   -0.5170 C   0  0  0  0  0  0  0  0  0  0  0  0
   -3.3170    2.5320   -0.4280 O   0  0  0  0  0  0  0  0  0  0  0  0
   -1.8610    3.8910   -1.7280 C   0  0  0  0  0  0  0  0  0  0  0  0
   -2.7420    4.5850   -2.4540 C   0  0  0  0  0  0  0  0  0  0  0  0
   -2.3960    5.3250   -3.6900 C   0  0  0  0  0  0  0  0  0  0  0  0
   -1.1240    5.3540   -4.1990 C   0  0  0  0  0  0  0  0  0  0  0  0
   -0.8430    6.0610   -5.3640 C   0  0  0  0  0  0  0  0  0  0  0  0
   -1.8350    6.7420   -6.0200 C   0  0  0  0  0  0  0  0  0  0  0  0
   -3.1110    6.7180   -5.5130 C   0  0  0  0  0  0  0  0  0  0  0  0
   -3.3930    6.0140   -4.3490 C   0  0  0  0  0  0  0  0  0  0  0  0
   -1.6250    7.4470   -7.1690 O   0  0  0  0  0  0  0  0  0  0  0  0
   -0.6000    7.0560   -8.0620 C   0  0  0  0  0  0  0  0  0  0  0  0
   -1.4240    3.2250    0.4990 O   0  0  0  0  0  0  0  0  0  0  0  0
   -0.0990    3.6600    0.2760 C   0  0  0  0  0  0  0  0  0  0  0  0
    0.3230    4.6240    1.3750 C   0  0  0  0  0  0  0  0  0  0  0  0
   -0.4260    4.4870    2.6560 C   0  0  0  0  0  0  0  0  0  0  0  0
    0.8130    2.4550    0.3020 C   0  0  0  0  0  0  0  0  0  0  0  0
    2.2400    2.7800    0.6050 C   0  0  0  0  0  0  0  0  0  0  0  0
    2.1960    0.3100    0.9490 C   0  0  0  0  0  0  0  0  0  0  0  0
    3.0430    1.5520    0.9460 C   0  0  0  0  0  0  0  0  0  0  0  0
 20 19  1  0
 18 20  1  0
 17 18  1  0
 14 17  1  0
 15 14  1  0
 16 15  1  0
 13 14  1  0
  1 13  1  0
  2  1  2  0
  3  1  1  0
  4  3  2  0
  5  4  1  0
  6  5  1  0
  7  6  2  0
  8  7  1  0
 11  8  1  0
 12 11  1  0
  9  8  2  0
 10  9  1  0
 10  5  2  0
M  END
> <structure>
shuffle_control

> <pose>
7

> <is_reference>
0

> <rmsd_to_reference_A>
8.580

> <vina_score>
-4.7

> <minimizedAffinity>
-5.06825

> <CNNscore>
0.4596718252

> <CNNaffinity>
3.5675747395

> <CNN_VS>
1.6399135590

> <CNNaffinity_variance>
0.7342841029

$$$$
shuffle_control_pose8


 20 20  0  0  0  0  0  0  0  0999 V2000
    0.8910    3.9190    2.7970 C   0  0  0  0  0  0  0  0  0  0  0  0
    0.5660    4.0240    3.9490 O   0  0  0  0  0  0  0  0  0  0  0  0
    0.1500    4.5150    1.6600 C   0  0  0  0  0  0  0  0  0  0  0  0
   -0.8670    3.8630    1.0890 C   0  0  0  0  0  0  0  0  0  0  0  0
   -1.6370    4.3790   -0.0680 C   0  0  0  0  0  0  0  0  0  0  0  0
   -1.5510    5.6800   -0.4870 C   0  0  0  0  0  0  0  0  0  0  0  0
   -2.2900    6.1230   -1.5790 C   0  0  0  0  0  0  0  0  0  0  0  0
   -3.1190    5.2630   -2.2520 C   0  0  0  0  0  0  0  0  0  0  0  0
   -3.2110    3.9580   -1.8340 C   0  0  0  0  0  0  0  0  0  0  0  0
   -2.4740    3.5150   -0.7420 C   0  0  0  0  0  0  0  0  0  0  0  0
   -3.8640    5.6330   -3.3330 O   0  0  0  0  0  0  0  0  0  0  0  0
   -3.2600    5.7330   -4.6090 C   0  0  0  0  0  0  0  0  0  0  0  0
    1.9790    3.2320    2.4340 O   0  0  0  0  0  0  0  0  0  0  0  0
    2.6900    3.5860    1.2650 C   0  0  0  0  0  0  0  0  0  0  0  0
    4.0090    4.2450    1.6380 C   0  0  0  0  0  0  0  0  0  0  0  0
    3.9460    5.7220    1.8260 C   0  0  0  0  0  0  0  0  0  0  0  0
    2.9730    2.3290    0.4750 C   0  0  0  0  0  0  0  0  0  0  0  0
    1.8380    1.3560    0.4570 C   0  0  0  0  0  0  0  0  0  0  0  0
    3.6280   -0.3670    0.2350 C   0  0  0  0  0  0  0  0  0  0  0  0
    2.2800   -0.0390    0.8130 C   0  0  0  0  0  0  0  0  0  0  0  0
 20 19  1  0
 18 20  1  0
 17 18  1  0
 14 17  1  0
 15 14  1  0
 16 15  1  0
 13 14  1  0
  1 13  1  0
  2  1  2  0
  3  1  1  0
  4  3  2  0
  5  4  1  0
  6  5  1  0
  7  6  2  0
  8  7  1  0
 11  8  1  0
 12 11  1  0
  9  8  2  0
 10  9  1  0
 10  5  2  0
M  END
> <structure>
shuffle_control

> <pose>
8

> <is_reference>
0

> <rmsd_to_reference_A>
6.980

> <vina_score>
-4.6

> <minimizedAffinity>
-4.93209

> <CNNscore>
0.2859549224

> <CNNaffinity>
3.9122476578

> <CNN_VS>
1.1187264919

> <CNNaffinity_variance>
0.2915153801

$$$$
shuffle_control_pose9


 20 20  0  0  0  0  0  0  0  0999 V2000
    1.2460    2.7240    1.6950 C   0  0  0  0  0  0  0  0  0  0  0  0
    1.5520    3.3920    2.6460 O   0  0  0  0  0  0  0  0  0  0  0  0
    0.5050    3.2350    0.5160 C   0  0  0  0  0  0  0  0  0  0  0  0
   -0.7950    3.5310    0.6010 C   0  0  0  0  0  0  0  0  0  0  0  0
   -1.6090    4.0180   -0.5370 C   0  0  0  0  0  0  0  0  0  0  0  0
   -2.7980    3.4370   -0.8930 C   0  0  0  0  0  0  0  0  0  0  0  0
   -3.5320    3.9280   -1.9690 C   0  0  0  0  0  0  0  0  0  0  0  0
   -3.0750    4.9990   -2.6910 C   0  0  0  0  0  0  0  0  0  0  0  0
   -1.8830    5.5840   -2.3400 C   0  0  0  0  0  0  0  0  0  0  0  0
   -1.1480    5.0940   -1.2670 C   0  0  0  0  0  0  0  0  0  0  0  0
   -3.7510    5.5310   -3.7500 O   0  0  0  0  0  0  0  0  0  0  0  0
   -3.0370    6.0700   -4.8470 C   0  0  0  0  0  0  0  0  0  0  0  0
    1.5540    1.4260    1.6190 O   0  0  0  0  0  0  0  0  0  0  0  0
    2.8280    1.0200    1.1620 C   0  0  0  0  0  0  0  0  0  0  0  0
    2.6980   -0.2270    0.3010 C   0  0  0  0  0  0  0  0  0  0  0  0
    1.5650   -0.2100   -0.6670 C   0  0  0  0  0  0  0  0  0  0  0  0
    3.4180    2.1350    0.3290 C   0  0  0  0  0  0  0  0  0  0  0  0
    4.8950    2.0260    0.1280 C   0  0  0  0  0  0  0  0  0  0  0  0
    4.6940    4.2710    1.1960 C   0  0  0  0  0  0  0  0  0  0  0  0
    5.6330    3.2140    0.6870 C   0  0  0  0  0  0  0  0  0  0  0  0
 20 19  1  0
 18 20  1  0
 17 18  1  0
 14 17  1  0
 15 14  1  0
 16 15  1  0
 13 14  1  0
  1 13  1  0
  2  1  2  0
  3  1  1  0
  4  3  2  0
  5  4  1  0
  6  5  1  0
  7  6  2  0
  8  7  1  0
 11  8  1  0
 12 11  1  0
  9  8  2  0
 10  9  1  0
 10  5  2  0
M  END
> <structure>
shuffle_control

> <pose>
9

> <is_reference>
0

> <rmsd_to_reference_A>
6.374

> <vina_score>
-4.6

> <minimizedAffinity>
-5.17654

> <CNNscore>
0.4245306849

> <CNNaffinity>
3.9731342793

> <CNN_VS>
1.6867173910

> <CNNaffinity_variance>
0.4941336811

$$$$
