shuffle_control_esm0_pose0_reference


 20 20  0  0  0  0  0  0  0  0999 V2000
    2.6810   10.4780    5.2760 C   0  0  0  0  0  0  0  0  0  0  0  0
    3.1300   11.5110    5.6600 O   0  0  0  0  0  0  0  0  0  0  0  0
    3.3750    9.1620    5.4220 C   0  0  0  0  0  0  0  0  0  0  0  0
    4.0890    8.6580    4.4310 C   0  0  0  0  0  0  0  0  0  0  0  0
    4.6990    7.2950    4.4660 C   0  0  0  0  0  0  0  0  0  0  0  0
    4.4910    6.4590    3.3990 C   0  0  0  0  0  0  0  0  0  0  0  0
    5.0100    5.1720    3.3910 C   0  0  0  0  0  0  0  0  0  0  0  0
    5.7580    4.7130    4.4590 C   0  0  0  0  0  0  0  0  0  0  0  0
    5.9770    5.5660    5.5410 C   0  0  0  0  0  0  0  0  0  0  0  0
    5.4540    6.8630    5.5400 C   0  0  0  0  0  0  0  0  0  0  0  0
    6.2700    3.4650    4.4960 O   0  0  0  0  0  0  0  0  0  0  0  0
    5.9660    2.5500    3.4450 C   0  0  0  0  0  0  0  0  0  0  0  0
    1.4790   10.4100    4.6520 O   0  0  0  0  0  0  0  0  0  0  0  0
    0.7340   11.5700    4.2950 C   0  0  0  0  0  0  0  0  0  0  0  0
   -0.4970   11.7620    5.1620 C   0  0  0  0  0  0  0  0  0  0  0  0
   -0.2510   12.1130    6.6010 C   0  0  0  0  0  0  0  0  0  0  0  0
    0.2780   11.4060    2.8820 C   0  0  0  0  0  0  0  0  0  0  0  0
    1.3140   10.8790    1.9500 C   0  0  0  0  0  0  0  0  0  0  0  0
   -0.3850   11.1240    0.0630 C   0  0  0  0  0  0  0  0  0  0  0  0
    0.8670   10.4990    0.5710 C   0  0  0  0  0  0  0  0  0  0  0  0
 20 19  1  0
 18 20  1  0
 17 18  1  0
 14 17  1  0
 15 14  1  0
 16 15  1  0
 13 14  1  0
  1 13  1  0
  2  1  2  0
  3  1  1  0
  4  3  2  0
  5  4  1  0
  6  5  1  0
  7  6  2  0
  8  7  1  0
 11  8  1  0
 12 11  1  0
  9  8  2  0
 10  5  2  0
 10  9  1  0
M  END
> <structure>
shuffle_control_esm0

> <pose>
0

> <is_reference>
1

> <rmsd_to_reference_A>
0.000

> <vina_score>


> <minimizedAffinity>
-3.07652

> <CNNscore>
0.6313377023

> <CNNaffinity>
4.4976596832

> <CNN_VS>
2.8395421505

> <CNNaffinity_variance>
0.1372338682

$$$$
shuffle_control_esm0_pose1


 20 20  0  0  0  0  0  0  0  0999 V2000
   -1.3850   13.4360    4.1400 C   0  0  0  0  0  0  0  0  0  0  0  0
   -2.0390   14.3800    4.4530 O   0  0  0  0  0  0  0  0  0  0  0  0
   -1.5170   12.7270    2.8300 C   0  0  0  0  0  0  0  0  0  0  0  0
   -0.5880   11.8840    2.4180 C   0  0  0  0  0  0  0  0  0  0  0  0
   -0.5970   11.2440    1.0690 C   0  0  0  0  0  0  0  0  0  0  0  0
    0.0570   10.0490    0.9090 C   0  0  0  0  0  0  0  0  0  0  0  0
    0.1060    9.4240   -0.3300 C   0  0  0  0  0  0  0  0  0  0  0  0
   -0.5170    9.9930   -1.4250 C   0  0  0  0  0  0  0  0  0  0  0  0
   -1.1900   11.2040   -1.2600 C   0  0  0  0  0  0  0  0  0  0  0  0
   -1.2370   11.8260   -0.0090 C   0  0  0  0  0  0  0  0  0  0  0  0
   -0.4840    9.4240   -2.6480 O   0  0  0  0  0  0  0  0  0  0  0  0
   -1.7020    9.0150   -3.2660 C   0  0  0  0  0  0  0  0  0  0  0  0
   -0.4500   12.9090    4.9690 O   0  0  0  0  0  0  0  0  0  0  0  0
   -0.7890   12.0990    6.0900 C   0  0  0  0  0  0  0  0  0  0  0  0
   -0.2260   12.6400    7.3920 C   0  0  0  0  0  0  0  0  0  0  0  0
   -1.2220   12.9430    8.4740 C   0  0  0  0  0  0  0  0  0  0  0  0
   -0.2070   10.7410    5.8690 C   0  0  0  0  0  0  0  0  0  0  0  0
    1.2510   10.7300    5.5650 C   0  0  0  0  0  0  0  0  0  0  0  0
    1.6680    8.5810    4.2550 C   0  0  0  0  0  0  0  0  0  0  0  0
    1.6820   10.0690    4.2910 C   0  0  0  0  0  0  0  0  0  0  0  0
 20 19  1  0
 18 20  1  0
 17 18  1  0
 14 17  1  0
 15 14  1  0
 16 15  1  0
 13 14  1  0
  1 13  1  0
  2  1  2  0
  3  1  1  0
  4  3  2  0
  5  4  1  0
  6  5  1  0
  7  6  2  0
  8  7  1  0
 11  8  1  0
 12 11  1  0
  9  8  2  0
 10  5  2  0
 10  9  1  0
M  END
> <structure>
shuffle_control_esm0

> <pose>
1

> <is_reference>
0

> <rmsd_to_reference_A>
7.015

> <vina_score>
-4.5

> <minimizedAffinity>
-4.47684

> <CNNscore>
0.2655279040

> <CNNaffinity>
4.0372133255

> <CNN_VS>
1.0719927549

> <CNNaffinity_variance>
0.3274498284

$$$$
shuffle_control_esm0_pose2


 20 20  0  0  0  0  0  0  0  0999 V2000
    1.5750   11.6030    5.7530 C   0  0  0  0  0  0  0  0  0  0  0  0
    2.6770   11.6130    6.2010 O   0  0  0  0  0  0  0  0  0  0  0  0
    1.2690   11.6530    4.2900 C   0  0  0  0  0  0  0  0  0  0  0  0
    0.2400   10.9930    3.7900 C   0  0  0  0  0  0  0  0  0  0  0  0
   -0.0440   10.8970    2.3260 C   0  0  0  0  0  0  0  0  0  0  0  0
   -0.8490   11.8490    1.7540 C   0  0  0  0  0  0  0  0  0  0  0  0
   -1.1690   11.7920    0.4040 C   0  0  0  0  0  0  0  0  0  0  0  0
   -0.6700   10.7770   -0.3910 C   0  0  0  0  0  0  0  0  0  0  0  0
    0.1560    9.8140    0.1900 C   0  0  0  0  0  0  0  0  0  0  0  0
    0.4770    9.8800    1.5490 C   0  0  0  0  0  0  0  0  0  0  0  0
   -0.9660   10.6800   -1.7030 O   0  0  0  0  0  0  0  0  0  0  0  0
   -1.4150   11.8350   -2.4100 C   0  0  0  0  0  0  0  0  0  0  0  0
    0.4800   11.5540    6.5510 O   0  0  0  0  0  0  0  0  0  0  0  0
   -0.2710   12.7140    6.8940 C   0  0  0  0  0  0  0  0  0  0  0  0
   -0.2310   13.0160    8.3810 C   0  0  0  0  0  0  0  0  0  0  0  0
   -1.5580   13.1820    9.0640 C   0  0  0  0  0  0  0  0  0  0  0  0
   -1.6950   12.4680    6.5150 C   0  0  0  0  0  0  0  0  0  0  0  0
   -2.2140   13.3520    5.4340 C   0  0  0  0  0  0  0  0  0  0  0  0
   -1.6320   14.9700    3.5490 C   0  0  0  0  0  0  0  0  0  0  0  0
   -1.2660   14.3580    4.8560 C   0  0  0  0  0  0  0  0  0  0  0  0
 20 19  1  0
 18 20  1  0
 17 18  1  0
 14 17  1  0
 15 14  1  0
 16 15  1  0
 13 14  1  0
  1 13  1  0
  2  1  2  0
  3  1  1  0
  4  3  2  0
  5  4  1  0
  6  5  1  0
  7  6  2  0
  8  7  1  0
 11  8  1  0
 12 11  1  0
  9  8  2  0
 10  5  2  0
 10  9  1  0
M  END
> <structure>
shuffle_control_esm0

> <pose>
2

> <is_reference>
0

> <rmsd_to_reference_A>
6.812

> <vina_score>
-4.4

> <minimizedAffinity>
-4.20472

> <CNNscore>
0.2766697407

> <CNNaffinity>
4.0805153847

> <CNN_VS>
1.1289551258

> <CNNaffinity_variance>
0.4576281011

$$$$
shuffle_control_esm0_pose3


 20 20  0  0  0  0  0  0  0  0999 V2000
    1.7800    9.6520    3.3160 C   0  0  0  0  0  0  0  0  0  0  0  0
    2.6240    8.8440    3.5390 O   0  0  0  0  0  0  0  0  0  0  0  0
    0.9150   10.2660    4.3690 C   0  0  0  0  0  0  0  0  0  0  0  0
    1.2000   11.4540    4.8730 C   0  0  0  0  0  0  0  0  0  0  0  0
    0.4530   12.0650    6.0140 C   0  0  0  0  0  0  0  0  0  0  0  0
   -0.8680   11.7360    6.1800 C   0  0  0  0  0  0  0  0  0  0  0  0
   -1.6170   12.2960    7.2060 C   0  0  0  0  0  0  0  0  0  0  0  0
   -1.0380   13.1900    8.0870 C   0  0  0  0  0  0  0  0  0  0  0  0
    0.3080   13.5180    7.9230 C   0  0  0  0  0  0  0  0  0  0  0  0
    1.0570   12.9470    6.8900 C   0  0  0  0  0  0  0  0  0  0  0  0
   -1.7350   13.7660    9.0890 O   0  0  0  0  0  0  0  0  0  0  0  0
   -1.7730   15.1880    9.1910 C   0  0  0  0  0  0  0  0  0  0  0  0
    1.5210   10.0850    2.0570 O   0  0  0  0  0  0  0  0  0  0  0  0
    0.2030   10.1350    1.5200 C   0  0  0  0  0  0  0  0  0  0  0  0
   -0.0130    9.1240    0.4090 C   0  0  0  0  0  0  0  0  0  0  0  0
    0.1800    9.6230   -0.9940 C   0  0  0  0  0  0  0  0  0  0  0  0
   -0.0070   11.4980    0.9460 C   0  0  0  0  0  0  0  0  0  0  0  0
   -1.2920   12.1460    1.3330 C   0  0  0  0  0  0  0  0  0  0  0  0
   -2.5200   13.6400    2.9970 C   0  0  0  0  0  0  0  0  0  0  0  0
   -1.3790   12.7280    2.7120 C   0  0  0  0  0  0  0  0  0  0  0  0
 20 19  1  0
 18 20  1  0
 17 18  1  0
 14 17  1  0
 15 14  1  0
 16 15  1  0
 13 14  1  0
  1 13  1  0
  2  1  2  0
  3  1  1  0
  4  3  2  0
  5  4  1  0
  6  5  1  0
  7  6  2  0
  8  7  1  0
 11  8  1  0
 12 11  1  0
  9  8  2  0
 10  5  2  0
 10  9  1  0
M  END
> <structure>
shuffle_control_esm0

> <pose>
3

> <is_reference>
0

> <rmsd_to_reference_A>
7.584

> <vina_score>
-4.3

> <minimizedAffinity>
-4.20263

> <CNNscore>
0.2464262396

> <CNNaffinity>
4.0970978737

> <CNN_VS>
1.0096324682

> <CNNaffinity_variance>
0.5643868446

$$$$
shuffle_control_esm0_pose4


 20 20  0  0  0  0  0  0  0  0999 V2000
   -0.5370    9.2470   -2.3540 C   0  0  0  0  0  0  0  0  0  0  0  0
    0.3560    9.1400   -3.1330 O   0  0  0  0  0  0  0  0  0  0  0  0
   -0.4480   10.0390   -1.0890 C   0  0  0  0  0  0  0  0  0  0  0  0
    0.1070    9.5260   -0.0050 C   0  0  0  0  0  0  0  0  0  0  0  0
    0.1130   10.2130    1.3210 C   0  0  0  0  0  0  0  0  0  0  0  0
   -0.6830   11.3160    1.4880 C   0  0  0  0  0  0  0  0  0  0  0  0
   -0.6960   12.0100    2.6900 C   0  0  0  0  0  0  0  0  0  0  0  0
    0.0910   11.5920    3.7470 C   0  0  0  0  0  0  0  0  0  0  0  0
    0.8950   10.4640    3.5800 C   0  0  0  0  0  0  0  0  0  0  0  0
    0.8990    9.7680    2.3680 C   0  0  0  0  0  0  0  0  0  0  0  0
    0.1170   12.2450    4.9280 O   0  0  0  0  0  0  0  0  0  0  0  0
   -0.0560   11.5130    6.1390 C   0  0  0  0  0  0  0  0  0  0  0  0
   -1.7330    8.6390   -2.5500 O   0  0  0  0  0  0  0  0  0  0  0  0
   -1.8490    7.3490   -3.1410 C   0  0  0  0  0  0  0  0  0  0  0  0
   -2.5020    7.3910   -4.5100 C   0  0  0  0  0  0  0  0  0  0  0  0
   -1.5760    7.3700   -5.6920 C   0  0  0  0  0  0  0  0  0  0  0  0
   -2.7070    6.5110   -2.2500 C   0  0  0  0  0  0  0  0  0  0  0  0
   -2.6790    5.0520   -2.5490 C   0  0  0  0  0  0  0  0  0  0  0  0
   -5.2270    5.1090   -2.4370 C   0  0  0  0  0  0  0  0  0  0  0  0
   -3.9900    4.3870   -2.8420 C   0  0  0  0  0  0  0  0  0  0  0  0
 20 19  1  0
 18 20  1  0
 17 18  1  0
 14 17  1  0
 15 14  1  0
 16 15  1  0
 13 14  1  0
  1 13  1  0
  2  1  2  0
  3  1  1  0
  4  3  2  0
  5  4  1  0
  6  5  1  0
  7  6  2  0
  8  7  1  0
 11  8  1  0
 12 11  1  0
  9  8  2  0
 10  5  2  0
 10  9  1  0
M  END
> <structure>
shuffle_control_esm0

> <pose>
4

> <is_reference>
0

> <rmsd_to_reference_A>
8.789

> <vina_score>
-4.3

> <minimizedAffinity>
-4.53189

> <CNNscore>
0.3099848330

> <CNNaffinity>
3.9228966236

> <CNN_VS>
1.2160384655

> <CNNaffinity_variance>
0.6930455565

$$$$
shuffle_control_esm0_pose5


 20 20  0  0  0  0  0  0  0  0999 V2000
   -1.6080   13.7150    4.0670 C   0  0  0  0  0  0  0  0  0  0  0  0
   -1.5010   14.8970    4.1500 O   0  0  0  0  0  0  0  0  0  0  0  0
   -1.6440   12.9710    2.7710 C   0  0  0  0  0  0  0  0  0  0  0  0
   -0.7730   12.0100    2.5160 C   0  0  0  0  0  0  0  0  0  0  0  0
   -0.6740   11.3180    1.1950 C   0  0  0  0  0  0  0  0  0  0  0  0
    0.0480   10.1540    1.1210 C   0  0  0  0  0  0  0  0  0  0  0  0
    0.1970    9.4850   -0.0860 C   0  0  0  0  0  0  0  0  0  0  0  0
   -0.3910    9.9780   -1.2360 C   0  0  0  0  0  0  0  0  0  0  0  0
   -1.1320   11.1570   -1.1590 C   0  0  0  0  0  0  0  0  0  0  0  0
   -1.2810   11.8240    0.0620 C   0  0  0  0  0  0  0  0  0  0  0  0
   -0.2600    9.3640   -2.4310 O   0  0  0  0  0  0  0  0  0  0  0  0
   -1.3050    9.4770   -3.3960 C   0  0  0  0  0  0  0  0  0  0  0  0
   -1.7170   12.9280    5.1660 O   0  0  0  0  0  0  0  0  0  0  0  0
   -0.8060   13.0060    6.2580 C   0  0  0  0  0  0  0  0  0  0  0  0
    0.4620   12.2070    6.0170 C   0  0  0  0  0  0  0  0  0  0  0  0
    0.2850   10.7440    5.7300 C   0  0  0  0  0  0  0  0  0  0  0  0
   -1.4830   12.4380    7.4620 C   0  0  0  0  0  0  0  0  0  0  0  0
   -1.3560   13.2640    8.6960 C   0  0  0  0  0  0  0  0  0  0  0  0
   -2.3930   15.3780    9.6780 C   0  0  0  0  0  0  0  0  0  0  0  0
   -1.6370   14.7310    8.5710 C   0  0  0  0  0  0  0  0  0  0  0  0
 20 19  1  0
 18 20  1  0
 17 18  1  0
 14 17  1  0
 15 14  1  0
 16 15  1  0
 13 14  1  0
  1 13  1  0
  2  1  2  0
  3  1  1  0
  4  3  2  0
  5  4  1  0
  6  5  1  0
  7  6  2  0
  8  7  1  0
 11  8  1  0
 12 11  1  0
  9  8  2  0
 10  5  2  0
 10  9  1  0
M  END
> <structure>
shuffle_control_esm0

> <pose>
5

> <is_reference>
0

> <rmsd_to_reference_A>
7.750

> <vina_score>
-4.3

> <minimizedAffinity>
-4.43636

> <CNNscore>
0.2704410553

> <CNNaffinity>
3.7754383087

> <CNN_VS>
1.0210335255

> <CNNaffinity_variance>
0.4177697003

$$$$
shuffle_control_esm0_pose6


 20 20  0  0  0  0  0  0  0  0999 V2000
    0.7760   10.6850    5.0240 C   0  0  0  0  0  0  0  0  0  0  0  0
    0.9080    9.5370    5.3100 O   0  0  0  0  0  0  0  0  0  0  0  0
    0.4230   11.7530    6.0090 C   0  0  0  0  0  0  0  0  0  0  0  0
   -0.8160   11.8920    6.4430 C   0  0  0  0  0  0  0  0  0  0  0  0
   -1.2590   13.0140    7.3240 C   0  0  0  0  0  0  0  0  0  0  0  0
   -1.4610   14.2470    6.7600 C   0  0  0  0  0  0  0  0  0  0  0  0
   -1.8440   15.3320    7.5360 C   0  0  0  0  0  0  0  0  0  0  0  0
   -2.0410   15.1840    8.8960 C   0  0  0  0  0  0  0  0  0  0  0  0
   -1.8440   13.9280    9.4700 C   0  0  0  0  0  0  0  0  0  0  0  0
   -1.4610   12.8380    8.6800 C   0  0  0  0  0  0  0  0  0  0  0  0
   -2.4020   16.2150    9.6880 O   0  0  0  0  0  0  0  0  0  0  0  0
   -1.7230   17.4640    9.5670 C   0  0  0  0  0  0  0  0  0  0  0  0
    0.9300   11.1260    3.7510 O   0  0  0  0  0  0  0  0  0  0  0  0
    0.0580   10.7380    2.6950 C   0  0  0  0  0  0  0  0  0  0  0  0
    0.6550    9.6530    1.8160 C   0  0  0  0  0  0  0  0  0  0  0  0
    0.2240    9.6490    0.3770 C   0  0  0  0  0  0  0  0  0  0  0  0
   -0.1890   11.9370    1.8390 C   0  0  0  0  0  0  0  0  0  0  0  0
   -1.5660   12.4960    1.9320 C   0  0  0  0  0  0  0  0  0  0  0  0
   -0.9760   14.5700    3.2950 C   0  0  0  0  0  0  0  0  0  0  0  0
   -1.8650   13.3930    3.0950 C   0  0  0  0  0  0  0  0  0  0  0  0
 20 19  1  0
 18 20  1  0
 17 18  1  0
 14 17  1  0
 15 14  1  0
 16 15  1  0
 13 14  1  0
  1 13  1  0
  2  1  2  0
  3  1  1  0
  4  3  2  0
  5  4  1  0
  6  5  1  0
  7  6  2  0
  8  7  1  0
 11  8  1  0
 12 11  1  0
  9  8  2  0
 10  5  2  0
 10  9  1  0
M  END
> <structure>
shuffle_control_esm0

> <pose>
6

> <is_reference>
0

> <rmsd_to_reference_A>
8.822

> <vina_score>
-4.2

> <minimizedAffinity>
-4.16084

> <CNNscore>
0.2304018289

> <CNNaffinity>
4.0894932747

> <CNN_VS>
0.9422267079

> <CNNaffinity_variance>
0.7856380343

$$$$
shuffle_control_esm0_pose7


 20 20  0  0  0  0  0  0  0  0999 V2000
    0.8060   10.5970    5.2060 C   0  0  0  0  0  0  0  0  0  0  0  0
    1.7220    9.8510    5.3500 O   0  0  0  0  0  0  0  0  0  0  0  0
    0.4530   11.6800    6.1750 C   0  0  0  0  0  0  0  0  0  0  0  0
   -0.8090   11.9560    6.4540 C   0  0  0  0  0  0  0  0  0  0  0  0
   -1.2300   13.1050    7.3110 C   0  0  0  0  0  0  0  0  0  0  0  0
   -1.3960   12.8900    8.6550 C   0  0  0  0  0  0  0  0  0  0  0  0
   -1.8140   13.9140    9.4930 C   0  0  0  0  0  0  0  0  0  0  0  0
   -2.0610   15.1760    8.9860 C   0  0  0  0  0  0  0  0  0  0  0  0
   -1.8840   15.3970    7.6200 C   0  0  0  0  0  0  0  0  0  0  0  0
   -1.4590   14.3610    6.7820 C   0  0  0  0  0  0  0  0  0  0  0  0
   -2.4800   16.1950    9.7650 O   0  0  0  0  0  0  0  0  0  0  0  0
   -1.5180   17.0300   10.4070 C   0  0  0  0  0  0  0  0  0  0  0  0
   -0.0170   10.5190    4.1310 O   0  0  0  0  0  0  0  0  0  0  0  0
    0.3780   10.9440    2.8310 C   0  0  0  0  0  0  0  0  0  0  0  0
   -0.6910   11.7680    2.1370 C   0  0  0  0  0  0  0  0  0  0  0  0
   -1.3960   12.7920    2.9790 C   0  0  0  0  0  0  0  0  0  0  0  0
    0.6270    9.7250    2.0050 C   0  0  0  0  0  0  0  0  0  0  0  0
    0.8970    9.9930    0.5640 C   0  0  0  0  0  0  0  0  0  0  0  0
   -0.6820   10.2030   -1.4280 C   0  0  0  0  0  0  0  0  0  0  0  0
    0.0030    9.3280   -0.4370 C   0  0  0  0  0  0  0  0  0  0  0  0
 20 19  1  0
 18 20  1  0
 17 18  1  0
 14 17  1  0
 15 14  1  0
 16 15  1  0
 13 14  1  0
  1 13  1  0
  2  1  2  0
  3  1  1  0
  4  3  2  0
  5  4  1  0
  6  5  1  0
  7  6  2  0
  8  7  1  0
 11  8  1  0
 12 11  1  0
  9  8  2  0
 10  5  2  0
 10  9  1  0
M  END
> <structure>
shuffle_control_esm0

> <pose>
7

> <is_reference>
0

> <rmsd_to_reference_A>
8.578

> <vina_score>
-4.2

> <minimizedAffinity>
-4.32024

> <CNNscore>
0.2551501989

> <CNNaffinity>
4.0707087517

> <CNN_VS>
1.0386421680

> <CNNaffinity_variance>
0.3787818253

$$$$
shuffle_control_esm0_pose8


 20 20  0  0  0  0  0  0  0  0999 V2000
    1.1750   11.0760    5.1200 C   0  0  0  0  0  0  0  0  0  0  0  0
    1.9150   10.4960    5.8500 O   0  0  0  0  0  0  0  0  0  0  0  0
    1.0090   10.7520    3.6710 C   0  0  0  0  0  0  0  0  0  0  0  0
    0.0870   11.3560    2.9420 C   0  0  0  0  0  0  0  0  0  0  0  0
   -0.2150   10.9870    1.5260 C   0  0  0  0  0  0  0  0  0  0  0  0
    0.2970    9.8150    1.0330 C   0  0  0  0  0  0  0  0  0  0  0  0
    0.0720    9.4370   -0.2830 C   0  0  0  0  0  0  0  0  0  0  0  0
   -0.6850   10.2350   -1.1200 C   0  0  0  0  0  0  0  0  0  0  0  0
   -1.2130   11.4240   -0.6170 C   0  0  0  0  0  0  0  0  0  0  0  0
   -0.9860   11.7960    0.7120 C   0  0  0  0  0  0  0  0  0  0  0  0
   -0.9170    9.9100   -2.4090 O   0  0  0  0  0  0  0  0  0  0  0  0
    0.1630    9.9180   -3.3400 C   0  0  0  0  0  0  0  0  0  0  0  0
    0.4110   12.1090    5.5530 O   0  0  0  0  0  0  0  0  0  0  0  0
   -0.3890   12.0310    6.7290 C   0  0  0  0  0  0  0  0  0  0  0  0
   -1.8340   12.4260    6.4790 C   0  0  0  0  0  0  0  0  0  0  0  0
   -2.0870   13.3130    5.2940 C   0  0  0  0  0  0  0  0  0  0  0  0
    0.1770   12.9790    7.7340 C   0  0  0  0  0  0  0  0  0  0  0  0
   -0.7750   13.3980    8.8010 C   0  0  0  0  0  0  0  0  0  0  0  0
   -2.2770   15.3410    9.4910 C   0  0  0  0  0  0  0  0  0  0  0  0
   -0.9420   14.8700    9.0330 C   0  0  0  0  0  0  0  0  0  0  0  0
 20 19  1  0
 18 20  1  0
 17 18  1  0
 14 17  1  0
 15 14  1  0
 16 15  1  0
 13 14  1  0
  1 13  1  0
  2  1  2  0
  3  1  1  0
  4  3  2  0
  5  4  1  0
  6  5  1  0
  7  6  2  0
  8  7  1  0
 11  8  1  0
 12 11  1  0
  9  8  2  0
 10  5  2  0
 10  9  1  0
M  END
> <structure>
shuffle_control_esm0

> <pose>
8

> <is_reference>
0

> <rmsd_to_reference_A>
7.335

> <vina_score>
-4.2

> <minimizedAffinity>
-4.30249

> <CNNscore>
0.2917472720

> <CNNaffinity>
3.9959785938

> <CNN_VS>
1.1658158302

> <CNNaffinity_variance>
0.2669062912

$$$$
shuffle_control_esm0_pose9


 20 20  0  0  0  0  0  0  0  0999 V2000
    4.3480    8.3230    4.6320 C   0  0  0  0  0  0  0  0  0  0  0  0
    5.2450    8.7020    5.3160 O   0  0  0  0  0  0  0  0  0  0  0  0
    4.2090    6.9170    4.1430 C   0  0  0  0  0  0  0  0  0  0  0  0
    4.9340    6.4770    3.1300 C   0  0  0  0  0  0  0  0  0  0  0  0
    4.7530    5.1290    2.5120 C   0  0  0  0  0  0  0  0  0  0  0  0
    4.0280    4.1890    3.1980 C   0  0  0  0  0  0  0  0  0  0  0  0
    3.8530    2.9110    2.6840 C   0  0  0  0  0  0  0  0  0  0  0  0
    4.3990    2.5680    1.4620 C   0  0  0  0  0  0  0  0  0  0  0  0
    5.1300    3.5270    0.7600 C   0  0  0  0  0  0  0  0  0  0  0  0
    5.2990    4.8130    1.2820 C   0  0  0  0  0  0  0  0  0  0  0  0
    4.2630    1.3340    0.9330 O   0  0  0  0  0  0  0  0  0  0  0  0
    5.1580    0.2970    1.3300 C   0  0  0  0  0  0  0  0  0  0  0  0
    3.3590    9.1570    4.2250 O   0  0  0  0  0  0  0  0  0  0  0  0
    2.0100    8.7260    4.0670 C   0  0  0  0  0  0  0  0  0  0  0  0
    1.3290    9.3710    2.8730 C   0  0  0  0  0  0  0  0  0  0  0  0
    2.2290   10.0260    1.8660 C   0  0  0  0  0  0  0  0  0  0  0  0
    1.2550    9.1210    5.2940 C   0  0  0  0  0  0  0  0  0  0  0  0
    1.1200   10.5910    5.4970 C   0  0  0  0  0  0  0  0  0  0  0  0
   -0.4110   12.1720    6.7860 C   0  0  0  0  0  0  0  0  0  0  0  0
   -0.2580   11.1270    5.7370 C   0  0  0  0  0  0  0  0  0  0  0  0
 20 19  1  0
 18 20  1  0
 17 18  1  0
 14 17  1  0
 15 14  1  0
 16 15  1  0
 13 14  1  0
  1 13  1  0
  2  1  2  0
  3  1  1  0
  4  3  2  0
  5  4  1  0
  6  5  1  0
  7  6  2  0
  8  7  1  0
 11  8  1  0
 12 11  1  0
  9  8  2  0
 10  5  2  0
 10  9  1  0
M  END
> <structure>
shuffle_control_esm0

> <pose>
9

> <is_reference>
0

> <rmsd_to_reference_A>
3.897

> <vina_score>
-4.1

> <minimizedAffinity>
-4.30921

> <CNNscore>
0.4749248028

> <CNNaffinity>
4.4593963623

> <CNN_VS>
2.1178779602

> <CNNaffinity_variance>
0.3342702389

$$$$
