s3_orig_f12_ligand
     RDKit          3D

 44 44  0  0  0  0  0  0  0  0999 V2000
   10.5486    7.5746    1.6904 C   0  0  0  0  0  0  0  0  0  0  0  0
    9.2003    7.3256    2.3307 C   0  0  0  0  0  0  0  0  0  0  0  0
    8.5250    6.1094    1.7505 C   0  0  0  0  0  0  0  0  0  0  0  0
    7.2052    5.8229    2.3877 C   0  0  0  0  0  0  0  0  0  0  0  0
    6.1948    5.1328    1.4850 C   0  0  2  0  0  0  0  0  0  0  0  0
    5.0708    4.5441    2.3173 C   0  0  0  0  0  0  0  0  0  0  0  0
    4.4142    5.5391    3.2677 C   0  0  0  0  0  0  0  0  0  0  0  0
    6.7580    4.1932    0.7505 O   0  0  0  0  0  0  0  0  0  0  0  0
    7.3003    3.1496    0.3616 C   0  0  0  0  0  0  0  0  0  0  0  0
    7.4819    2.2681    1.1614 O   0  0  0  0  0  0  0  0  0  0  0  0
    7.7199    3.0865   -1.0578 C   0  0  0  0  0  0  0  0  0  0  0  0
    8.3408    2.0235   -1.5628 C   0  0  0  0  0  0  0  0  0  0  0  0
    8.8711    1.9416   -2.9472 C   0  0  0  0  0  0  0  0  0  0  0  0
    9.7639    0.9339   -3.2724 C   0  0  0  0  0  0  0  0  0  0  0  0
   10.3389    0.8810   -4.5371 C   0  0  0  0  0  0  0  0  0  0  0  0
    9.9862    1.7925   -5.5109 C   0  0  0  0  0  0  0  0  0  0  0  0
   10.5180    1.7680   -6.7840 O   0  0  0  0  0  0  0  0  0  0  0  0
   11.8366    1.2762   -6.9365 C   0  0  0  0  0  0  0  0  0  0  0  0
    9.0630    2.7557   -5.2008 C   0  0  0  0  0  0  0  0  0  0  0  0
    8.5075    2.8325   -3.9242 C   0  0  0  0  0  0  0  0  0  0  0  0
   10.5140    8.5119    1.1156 H   0  0  0  0  0  0  0  0  0  0  0  0
   11.3174    7.6527    2.4731 H   0  0  0  0  0  0  0  0  0  0  0  0
   10.7944    6.7403    1.0169 H   0  0  0  0  0  0  0  0  0  0  0  0
    9.3410    7.1741    3.4111 H   0  0  0  0  0  0  0  0  0  0  0  0
    8.5609    8.1991    2.1357 H   0  0  0  0  0  0  0  0  0  0  0  0
    8.3676    6.2742    0.6744 H   0  0  0  0  0  0  0  0  0  0  0  0
    9.1789    5.2452    1.9388 H   0  0  0  0  0  0  0  0  0  0  0  0
    7.3803    5.1772    3.2608 H   0  0  0  0  0  0  0  0  0  0  0  0
    6.7701    6.7990    2.6481 H   0  0  0  0  0  0  0  0  0  0  0  0
    5.7841    5.8894    0.8001 H   0  0  0  0  0  0  0  0  0  0  0  0
    4.3000    4.1586    1.6338 H   0  0  0  0  0  0  0  0  0  0  0  0
    5.5171    3.7558    2.9414 H   0  0  0  0  0  0  0  0  0  0  0  0
    4.6807    6.5633    2.9676 H   0  0  0  0  0  0  0  0  0  0  0  0
    3.3217    5.4179    3.2280 H   0  0  0  0  0  0  0  0  0  0  0  0
    4.7667    5.3541    4.2931 H   0  0  0  0  0  0  0  0  0  0  0  0
    7.5117    3.9443   -1.7142 H   0  0  0  0  0  0  0  0  0  0  0  0
    8.4699    1.1468   -0.9110 H   0  0  0  0  0  0  0  0  0  0  0  0
   10.0200    0.1695   -2.5241 H   0  0  0  0  0  0  0  0  0  0  0  0
   11.0835    0.1037   -4.7639 H   0  0  0  0  0  0  0  0  0  0  0  0
   12.4129    1.9635   -7.5733 H   0  0  0  0  0  0  0  0  0  0  0  0
   12.3165    1.2015   -5.9496 H   0  0  0  0  0  0  0  0  0  0  0  0
   11.8050    0.2816   -7.4052 H   0  0  0  0  0  0  0  0  0  0  0  0
    8.7554    3.4792   -5.9701 H   0  0  0  0  0  0  0  0  0  0  0  0
    7.7695    3.6163   -3.6983 H   0  0  0  0  0  0  0  0  0  0  0  0
  2  1  1  0
  3  2  1  0
  4  3  1  0
  5  4  1  0
  6  5  1  0
  7  6  1  0
  8  5  1  0
  9  8  1  0
 10  9  2  0
 11  9  1  0
 12 11  2  3
 13 12  1  0
 14 13  1  0
 15 14  2  0
 16 15  1  0
 17 16  1  0
 18 17  1  0
 19 16  2  0
 20 19  1  0
 20 13  2  0
  1 21  1  0
  1 22  1  0
  1 23  1  0
  2 24  1  0
  2 25  1  0
  3 26  1  0
  3 27  1  0
  4 28  1  0
  4 29  1  0
  5 30  1  6
  6 31  1  0
  6 32  1  0
  7 33  1  0
  7 34  1  0
  7 35  1  0
 11 36  1  0
 12 37  1  0
 14 38  1  0
 15 39  1  0
 18 40  1  0
 18 41  1  0
 18 42  1  0
 19 43  1  0
 20 44  1  0
M  END
$$$$
