ox2_orig_f8_pose0_reference


 18 19  0  0  0  0  0  0  0  0999 V2000
    0.9210   -1.2730    0.7320 C   0  0  0  0  0  0  0  0  0  0  0  0
    1.0840    0.0220    0.2860 C   0  0  0  0  0  0  0  0  0  0  0  0
    0.5720    0.4090   -0.9310 C   0  0  0  0  0  0  0  0  0  0  0  0
   -0.0950   -0.5000   -1.7160 C   0  0  0  0  0  0  0  0  0  0  0  0
   -0.2790   -1.8060   -1.2670 C   0  0  0  0  0  0  0  0  0  0  0  0
   -0.9560   -2.6860   -2.0220 O   0  0  0  0  0  0  0  0  0  0  0  0
    0.2350   -2.1800   -0.0460 C   0  0  0  0  0  0  0  0  0  0  0  0
   -1.3023   -2.4225   -2.8518 H   0  0  0  0  0  0  0  0  0  0  0  0
    1.3130   -2.8750    2.4570 C   0  0  0  0  0  0  0  0  0  0  0  0
    1.4570   -1.5830    1.9430 O   0  0  0  0  0  0  0  0  0  0  0  0
   -0.6330   -0.0610   -3.0080 C   0  0  0  0  0  0  0  0  0  0  0  0
   -1.6660   -0.3880   -3.2440 O   0  0  0  0  0  0  0  0  0  0  0  0
   -0.0710    0.8640   -3.9600 C   0  0  0  0  0  0  0  0  0  0  0  0
    1.2780    0.8930   -4.1800 C   0  0  0  0  0  0  0  0  0  0  0  0
    1.8150    1.7690   -5.0970 C   0  0  0  0  0  0  0  0  0  0  0  0
    1.0020    2.6350   -5.7890 C   0  0  0  0  0  0  0  0  0  0  0  0
   -0.3610    2.5950   -5.5860 C   0  0  0  0  0  0  0  0  0  0  0  0
   -0.9090    1.7010   -4.6780 C   0  0  0  0  0  0  0  0  0  0  0  0
 10  9  1  0
  1 10  1  0
  2  1  1  0
  3  2  2  0
  4  3  1  0
 11  4  1  0
 12 11  2  0
 13 11  1  0
 14 13  2  0
 15 14  1  0
 16 15  2  0
 17 16  1  0
 18 17  2  0
 18 13  1  0
  5  4  2  0
  6  5  1  0
  7  5  1  0
  7  1  2  0
  6  8  1  0
M  END
> <structure>
ox2_orig_f8

> <pose>
0

> <is_reference>
1

> <rmsd_to_reference_A>
0.000

> <vina_score>


> <minimizedAffinity>
-4.98875

> <CNNscore>
0.6705671549

> <CNNaffinity>
3.4347732067

> <CNN_VS>
2.3032460213

> <CNNaffinity_variance>
0.7510593534

$$$$
ox2_orig_f8_pose1


 18 19  0  0  0  0  0  0  0  0999 V2000
    0.2980    0.0860   -1.2380 C   0  0  0  0  0  0  0  0  0  0  0  0
    0.6070    1.4090   -1.4790 C   0  0  0  0  0  0  0  0  0  0  0  0
    0.4830    1.9340   -2.7450 C   0  0  0  0  0  0  0  0  0  0  0  0
    0.0610    1.1360   -3.7800 C   0  0  0  0  0  0  0  0  0  0  0  0
   -0.2700   -0.1970   -3.5440 C   0  0  0  0  0  0  0  0  0  0  0  0
   -0.7100   -0.9680   -4.5510 O   0  0  0  0  0  0  0  0  0  0  0  0
   -0.1450   -0.7090   -2.2720 C   0  0  0  0  0  0  0  0  0  0  0  0
   -0.7918   -0.6107   -5.4133 H   0  0  0  0  0  0  0  0  0  0  0  0
    0.8330   -1.6860    0.2680 C   0  0  0  0  0  0  0  0  0  0  0  0
    0.4480   -0.3620    0.0370 O   0  0  0  0  0  0  0  0  0  0  0  0
   -0.0650    1.7210   -5.1200 C   0  0  0  0  0  0  0  0  0  0  0  0
   -1.0730    1.6770   -5.5790 O   0  0  0  0  0  0  0  0  0  0  0  0
    0.8990    2.4840   -5.8730 C   0  0  0  0  0  0  0  0  0  0  0  0
    2.2350    2.2300   -5.7410 C   0  0  0  0  0  0  0  0  0  0  0  0
    3.1560    2.9510   -6.4680 C   0  0  0  0  0  0  0  0  0  0  0  0
    2.7420    3.9450   -7.3220 C   0  0  0  0  0  0  0  0  0  0  0  0
    1.3940    4.1900   -7.4750 C   0  0  0  0  0  0  0  0  0  0  0  0
    0.4620    3.4540   -6.7600 C   0  0  0  0  0  0  0  0  0  0  0  0
 10  9  1  0
  1 10  1  0
  2  1  1  0
  3  2  2  0
  4  3  1  0
 11  4  1  0
 12 11  2  0
 13 11  1  0
 14 13  2  0
 15 14  1  0
 16 15  2  0
 17 16  1  0
 18 17  2  0
 18 13  1  0
  5  4  2  0
  6  5  1  0
  7  5  1  0
  7  1  2  0
  6  8  1  0
M  END
> <structure>
ox2_orig_f8

> <pose>
1

> <is_reference>
0

> <rmsd_to_reference_A>
2.679

> <vina_score>
-6.9

> <minimizedAffinity>
-7.03722

> <CNNscore>
0.5953758955

> <CNNaffinity>
2.9618759155

> <CNN_VS>
1.7634295225

> <CNNaffinity_variance>
1.0075589418

$$$$
ox2_orig_f8_pose2


 18 19  0  0  0  0  0  0  0  0999 V2000
    0.5540    0.1160   -0.9590 C   0  0  0  0  0  0  0  0  0  0  0  0
    0.8250   -0.6020   -2.1050 C   0  0  0  0  0  0  0  0  0  0  0  0
    0.5940   -0.0490   -3.3440 C   0  0  0  0  0  0  0  0  0  0  0  0
    0.0790    1.2200   -3.4440 C   0  0  0  0  0  0  0  0  0  0  0  0
   -0.1820    1.9590   -2.2920 C   0  0  0  0  0  0  0  0  0  0  0  0
   -0.6580    3.2110   -2.3920 O   0  0  0  0  0  0  0  0  0  0  0  0
    0.0560    1.3960   -1.0590 C   0  0  0  0  0  0  0  0  0  0  0  0
   -0.8169    3.5858   -3.2359 H   0  0  0  0  0  0  0  0  0  0  0  0
    0.3150   -1.7850    0.4640 C   0  0  0  0  0  0  0  0  0  0  0  0
    0.8050   -0.4970    0.2290 O   0  0  0  0  0  0  0  0  0  0  0  0
   -0.1560    1.7870   -4.7770 C   0  0  0  0  0  0  0  0  0  0  0  0
   -1.2060    1.7850   -5.1310 O   0  0  0  0  0  0  0  0  0  0  0  0
    0.7610    2.4880   -5.6400 C   0  0  0  0  0  0  0  0  0  0  0  0
    2.1090    2.2970   -5.5170 C   0  0  0  0  0  0  0  0  0  0  0  0
    2.9840    2.9590   -6.3490 C   0  0  0  0  0  0  0  0  0  0  0  0
    2.5130    3.8310   -7.3010 C   0  0  0  0  0  0  0  0  0  0  0  0
    1.1540    4.0110   -7.4430 C   0  0  0  0  0  0  0  0  0  0  0  0
    0.2670    3.3330   -6.6210 C   0  0  0  0  0  0  0  0  0  0  0  0
 10  9  1  0
  1 10  1  0
  2  1  1  0
  3  2  2  0
  4  3  1  0
 11  4  1  0
 12 11  2  0
 13 11  1  0
 14 13  2  0
 15 14  1  0
 16 15  2  0
 17 16  1  0
 18 17  2  0
 18 13  1  0
  5  4  2  0
  6  5  1  0
  7  5  1  0
  7  1  2  0
  6  8  1  0
M  END
> <structure>
ox2_orig_f8

> <pose>
2

> <is_reference>
0

> <rmsd_to_reference_A>
2.967

> <vina_score>
-6.2

> <minimizedAffinity>
-6.38837

> <CNNscore>
0.5410416126

> <CNNaffinity>
3.2030708790

> <CNN_VS>
1.7329946756

> <CNNaffinity_variance>
0.6320075393

$$$$
ox2_orig_f8_pose3


 18 19  0  0  0  0  0  0  0  0999 V2000
    0.1320    0.4590   -1.6580 C   0  0  0  0  0  0  0  0  0  0  0  0
    0.7870    0.4000   -0.4450 C   0  0  0  0  0  0  0  0  0  0  0  0
    0.7810   -0.7610    0.2940 C   0  0  0  0  0  0  0  0  0  0  0  0
    0.1090   -1.8660   -0.1690 C   0  0  0  0  0  0  0  0  0  0  0  0
   -0.5410   -1.8220   -1.4010 C   0  0  0  0  0  0  0  0  0  0  0  0
   -1.1720   -2.9110   -1.8660 O   0  0  0  0  0  0  0  0  0  0  0  0
   -0.5250   -0.6560   -2.1320 C   0  0  0  0  0  0  0  0  0  0  0  0
   -1.1776   -3.7005   -1.3613 H   0  0  0  0  0  0  0  0  0  0  0  0
    0.0900    1.6510   -3.7250 C   0  0  0  0  0  0  0  0  0  0  0  0
    0.1790    1.6400   -2.3300 O   0  0  0  0  0  0  0  0  0  0  0  0
    0.1200   -3.0920    0.6370 C   0  0  0  0  0  0  0  0  0  0  0  0
    0.6120   -3.9740    0.1780 O   0  0  0  0  0  0  0  0  0  0  0  0
   -0.2830   -3.2820    2.0070 C   0  0  0  0  0  0  0  0  0  0  0  0
    0.5740   -2.9740    3.0280 C   0  0  0  0  0  0  0  0  0  0  0  0
    0.1860   -3.1460    4.3380 C   0  0  0  0  0  0  0  0  0  0  0  0
   -1.0610   -3.6440    4.6340 C   0  0  0  0  0  0  0  0  0  0  0  0
   -1.9350   -3.9370    3.6090 C   0  0  0  0  0  0  0  0  0  0  0  0
   -1.5570   -3.7470    2.2880 C   0  0  0  0  0  0  0  0  0  0  0  0
 10  9  1  0
  1 10  1  0
  2  1  1  0
  3  2  2  0
  4  3  1  0
 11  4  1  0
 12 11  2  0
 13 11  1  0
 14 13  2  0
 15 14  1  0
 16 15  2  0
 17 16  1  0
 18 17  2  0
 18 13  1  0
  5  4  2  0
  6  5  1  0
  7  5  1  0
  7  1  2  0
  6  8  1  0
M  END
> <structure>
ox2_orig_f8

> <pose>
3

> <is_reference>
0

> <rmsd_to_reference_A>
6.707

> <vina_score>
-5.8

> <minimizedAffinity>
-5.93962

> <CNNscore>
0.5233919024

> <CNNaffinity>
3.1024196148

> <CNN_VS>
1.6237813234

> <CNNaffinity_variance>
0.9059052467

$$$$
ox2_orig_f8_pose4


 18 19  0  0  0  0  0  0  0  0999 V2000
   -0.4050    0.7140   -4.1250 C   0  0  0  0  0  0  0  0  0  0  0  0
   -0.8150   -0.5140   -3.6490 C   0  0  0  0  0  0  0  0  0  0  0  0
   -0.5670   -0.8720   -2.3440 C   0  0  0  0  0  0  0  0  0  0  0  0
    0.1050   -0.0110   -1.5100 C   0  0  0  0  0  0  0  0  0  0  0  0
    0.5080    1.2380   -1.9780 C   0  0  0  0  0  0  0  0  0  0  0  0
    1.1390    2.0910   -1.1540 O   0  0  0  0  0  0  0  0  0  0  0  0
    0.2510    1.5870   -3.2840 C   0  0  0  0  0  0  0  0  0  0  0  0
    1.3098    1.8449   -0.2662 H   0  0  0  0  0  0  0  0  0  0  0  0
   -0.8130    2.3280   -5.8350 C   0  0  0  0  0  0  0  0  0  0  0  0
   -0.6830    0.9980   -5.4260 O   0  0  0  0  0  0  0  0  0  0  0  0
    0.3540   -0.4170   -0.1230 C   0  0  0  0  0  0  0  0  0  0  0  0
    0.3030    0.3870    0.6380 O   0  0  0  0  0  0  0  0  0  0  0  0
    0.5110   -1.7420    0.4220 C   0  0  0  0  0  0  0  0  0  0  0  0
   -0.1750   -2.7950   -0.1160 C   0  0  0  0  0  0  0  0  0  0  0  0
   -0.0180   -4.0630    0.3980 C   0  0  0  0  0  0  0  0  0  0  0  0
    0.8180   -4.2810    1.4670 C   0  0  0  0  0  0  0  0  0  0  0  0
    1.5280   -3.2260    1.9990 C   0  0  0  0  0  0  0  0  0  0  0  0
    1.3890   -1.9500    1.4730 C   0  0  0  0  0  0  0  0  0  0  0  0
 10  9  1  0
  1 10  1  0
  2  1  1  0
  3  2  2  0
  4  3  1  0
 11  4  1  0
 12 11  2  0
 13 11  1  0
 14 13  2  0
 15 14  1  0
 16 15  2  0
 17 16  1  0
 18 17  2  0
 18 13  1  0
  5  4  2  0
  6  5  1  0
  7  5  1  0
  7  1  2  0
  6  8  1  0
M  END
> <structure>
ox2_orig_f8

> <pose>
4

> <is_reference>
0

> <rmsd_to_reference_A>
6.306

> <vina_score>
-5.7

> <minimizedAffinity>
-6.43291

> <CNNscore>
0.7422851920

> <CNNaffinity>
3.8666641712

> <CNN_VS>
2.8701674938

> <CNNaffinity_variance>
0.3580100238

$$$$
ox2_orig_f8_pose5


 18 19  0  0  0  0  0  0  0  0999 V2000
    0.2190    0.2930   -1.9120 C   0  0  0  0  0  0  0  0  0  0  0  0
   -0.3590   -0.9030   -2.2850 C   0  0  0  0  0  0  0  0  0  0  0  0
   -0.5110   -1.9190   -1.3690 C   0  0  0  0  0  0  0  0  0  0  0  0
   -0.0740   -1.7500   -0.0780 C   0  0  0  0  0  0  0  0  0  0  0  0
    0.4960   -0.5400    0.3130 C   0  0  0  0  0  0  0  0  0  0  0  0
    0.8960   -0.3660    1.5830 O   0  0  0  0  0  0  0  0  0  0  0  0
    0.6390    0.4690   -0.6120 C   0  0  0  0  0  0  0  0  0  0  0  0
    0.7944   -1.0591    2.2053 H   0  0  0  0  0  0  0  0  0  0  0  0
    0.8260    0.9070   -4.1370 C   0  0  0  0  0  0  0  0  0  0  0  0
    0.3380    1.2490   -2.8720 O   0  0  0  0  0  0  0  0  0  0  0  0
   -0.2500   -2.8480    0.8790 C   0  0  0  0  0  0  0  0  0  0  0  0
   -0.9680   -2.6670    1.7040 O   0  0  0  0  0  0  0  0  0  0  0  0
    0.2630   -4.1940    0.8230 C   0  0  0  0  0  0  0  0  0  0  0  0
   -0.2460   -5.0890   -0.0760 C   0  0  0  0  0  0  0  0  0  0  0  0
    0.2500   -6.3720   -0.1380 C   0  0  0  0  0  0  0  0  0  0  0  0
    1.2510   -6.7720    0.7150 C   0  0  0  0  0  0  0  0  0  0  0  0
    1.7820   -5.8660    1.6090 C   0  0  0  0  0  0  0  0  0  0  0  0
    1.3000   -4.5670    1.6620 C   0  0  0  0  0  0  0  0  0  0  0  0
 10  9  1  0
  1 10  1  0
  2  1  1  0
  3  2  2  0
  4  3  1  0
 11  4  1  0
 12 11  2  0
 13 11  1  0
 14 13  2  0
 15 14  1  0
 16 15  2  0
 17 16  1  0
 18 17  2  0
 18 13  1  0
  5  4  2  0
  6  5  1  0
  7  5  1  0
  7  1  2  0
  6  8  1  0
M  END
> <structure>
ox2_orig_f8

> <pose>
5

> <is_reference>
0

> <rmsd_to_reference_A>
6.566

> <vina_score>
-5.5

> <minimizedAffinity>
-5.70809

> <CNNscore>
0.6047906280

> <CNNaffinity>
3.2053821087

> <CNN_VS>
1.9385850430

> <CNNaffinity_variance>
0.7020952702

$$$$
ox2_orig_f8_pose6


 18 19  0  0  0  0  0  0  0  0999 V2000
    1.9790    3.8100   -7.3740 C   0  0  0  0  0  0  0  0  0  0  0  0
    2.5360    2.8780   -6.5230 C   0  0  0  0  0  0  0  0  0  0  0  0
    1.7390    2.1440   -5.6750 C   0  0  0  0  0  0  0  0  0  0  0  0
    0.3800    2.3460   -5.6630 C   0  0  0  0  0  0  0  0  0  0  0  0
   -0.1940    3.2730   -6.5300 C   0  0  0  0  0  0  0  0  0  0  0  0
   -1.5250    3.4500   -6.5390 O   0  0  0  0  0  0  0  0  0  0  0  0
    0.6140    3.9990   -7.3760 C   0  0  0  0  0  0  0  0  0  0  0  0
   -2.0678    2.9519   -5.9600 H   0  0  0  0  0  0  0  0  0  0  0  0
    4.1970    4.2120   -8.1550 C   0  0  0  0  0  0  0  0  0  0  0  0
    2.8300    4.4990   -8.1800 O   0  0  0  0  0  0  0  0  0  0  0  0
   -0.4480    1.5490   -4.7520 C   0  0  0  0  0  0  0  0  0  0  0  0
   -1.3890    1.1430   -5.1750 O   0  0  0  0  0  0  0  0  0  0  0  0
   -0.1460    1.0860   -3.4200 C   0  0  0  0  0  0  0  0  0  0  0  0
    0.3660    1.9460   -2.4900 C   0  0  0  0  0  0  0  0  0  0  0  0
    0.6450    1.5070   -1.2150 C   0  0  0  0  0  0  0  0  0  0  0  0
    0.4260    0.1940   -0.8690 C   0  0  0  0  0  0  0  0  0  0  0  0
   -0.1100   -0.6720   -1.7970 C   0  0  0  0  0  0  0  0  0  0  0  0
   -0.4110   -0.2300   -3.0770 C   0  0  0  0  0  0  0  0  0  0  0  0
 10  9  1  0
  1 10  1  0
  2  1  1  0
  3  2  2  0
  4  3  1  0
 11  4  1  0
 12 11  2  0
 13 11  1  0
 14 13  2  0
 15 14  1  0
 16 15  2  0
 17 16  1  0
 18 17  2  0
 18 13  1  0
  5  4  2  0
  6  5  1  0
  7  5  1  0
  7  1  2  0
  6  8  1  0
M  END
> <structure>
ox2_orig_f8

> <pose>
6

> <is_reference>
0

> <rmsd_to_reference_A>
6.912

> <vina_score>
-5.5

> <minimizedAffinity>
-5.69357

> <CNNscore>
0.3682799637

> <CNNaffinity>
2.9764373302

> <CNN_VS>
1.0961622000

> <CNNaffinity_variance>
0.9241199493

$$$$
ox2_orig_f8_pose7


 18 19  0  0  0  0  0  0  0  0999 V2000
    0.6230   -1.2100   -0.0990 C   0  0  0  0  0  0  0  0  0  0  0  0
    1.3540   -0.9180    1.0330 C   0  0  0  0  0  0  0  0  0  0  0  0
    1.1780   -1.6500    2.1850 C   0  0  0  0  0  0  0  0  0  0  0  0
    0.2600   -2.6720    2.2150 C   0  0  0  0  0  0  0  0  0  0  0  0
   -0.4720   -2.9850    1.0710 C   0  0  0  0  0  0  0  0  0  0  0  0
   -1.3480   -4.0020    1.0930 O   0  0  0  0  0  0  0  0  0  0  0  0
   -0.2840   -2.2470   -0.0750 C   0  0  0  0  0  0  0  0  0  0  0  0
   -1.4693   -4.4990    1.8780 H   0  0  0  0  0  0  0  0  0  0  0  0
    0.4590    0.9010   -1.2000 C   0  0  0  0  0  0  0  0  0  0  0  0
    0.8490   -0.4410   -1.1980 O   0  0  0  0  0  0  0  0  0  0  0  0
    0.0930   -3.4380    3.4540 C   0  0  0  0  0  0  0  0  0  0  0  0
   -0.9080   -3.3900    3.9280 O   0  0  0  0  0  0  0  0  0  0  0  0
    0.9980   -4.3740    4.0740 C   0  0  0  0  0  0  0  0  0  0  0  0
    1.4240   -5.4780    3.3890 C   0  0  0  0  0  0  0  0  0  0  0  0
    2.2970   -6.3670    3.9760 C   0  0  0  0  0  0  0  0  0  0  0  0
    2.7370   -6.1610    5.2620 C   0  0  0  0  0  0  0  0  0  0  0  0
    2.3280   -5.0380    5.9490 C   0  0  0  0  0  0  0  0  0  0  0  0
    1.4640   -4.1290    5.3550 C   0  0  0  0  0  0  0  0  0  0  0  0
 10  9  1  0
  1 10  1  0
  2  1  1  0
  3  2  2  0
  4  3  1  0
 11  4  1  0
 12 11  2  0
 13 11  1  0
 14 13  2  0
 15 14  1  0
 16 15  2  0
 17 16  1  0
 18 17  2  0
 18 13  1  0
  5  4  2  0
  6  5  1  0
  7  5  1  0
  7  1  2  0
  6  8  1  0
M  END
> <structure>
ox2_orig_f8

> <pose>
7

> <is_reference>
0

> <rmsd_to_reference_A>
8.012

> <vina_score>
-5.2

> <minimizedAffinity>
-5.23887

> <CNNscore>
0.5151420236

> <CNNaffinity>
2.9370834827

> <CNN_VS>
1.5130151510

> <CNNaffinity_variance>
1.0152029991

$$$$
ox2_orig_f8_pose8


 18 19  0  0  0  0  0  0  0  0999 V2000
   -0.3570    0.7220   -3.8640 C   0  0  0  0  0  0  0  0  0  0  0  0
    0.9960    0.9810   -3.7950 C   0  0  0  0  0  0  0  0  0  0  0  0
    1.5980    1.7910   -4.7290 C   0  0  0  0  0  0  0  0  0  0  0  0
    0.8550    2.3370   -5.7470 C   0  0  0  0  0  0  0  0  0  0  0  0
   -0.5160    2.0950   -5.8160 C   0  0  0  0  0  0  0  0  0  0  0  0
   -1.2470    2.6520   -6.7950 O   0  0  0  0  0  0  0  0  0  0  0  0
   -1.1080    1.2850   -4.8740 C   0  0  0  0  0  0  0  0  0  0  0  0
   -0.8353    3.2022   -7.4320 H   0  0  0  0  0  0  0  0  0  0  0  0
   -0.1490   -0.3650   -1.7500 C   0  0  0  0  0  0  0  0  0  0  0  0
   -0.8820   -0.0900   -2.9080 O   0  0  0  0  0  0  0  0  0  0  0  0
    1.5210    3.1990   -6.7290 C   0  0  0  0  0  0  0  0  0  0  0  0
    0.9210    4.0420   -7.1270 O   0  0  0  0  0  0  0  0  0  0  0  0
    2.9010    3.2050   -7.1460 C   0  0  0  0  0  0  0  0  0  0  0  0
    3.7810    4.1020   -6.6070 C   0  0  0  0  0  0  0  0  0  0  0  0
    5.1020    4.1000   -6.9970 C   0  0  0  0  0  0  0  0  0  0  0  0
    5.5460    3.2080   -7.9440 C   0  0  0  0  0  0  0  0  0  0  0  0
    4.6670    2.2880   -8.4740 C   0  0  0  0  0  0  0  0  0  0  0  0
    3.3400    2.2720   -8.0710 C   0  0  0  0  0  0  0  0  0  0  0  0
 10  9  1  0
  1 10  1  0
  2  1  1  0
  3  2  2  0
  4  3  1  0
 11  4  1  0
 12 11  2  0
 13 11  1  0
 14 13  2  0
 15 14  1  0
 16 15  2  0
 17 16  1  0
 18 17  2  0
 18 13  1  0
  5  4  2  0
  6  5  1  0
  7  5  1  0
  7  1  2  0
  6  8  1  0
M  END
> <structure>
ox2_orig_f8

> <pose>
8

> <is_reference>
0

> <rmsd_to_reference_A>
5.397

> <vina_score>
-5.1

> <minimizedAffinity>
-5.33140

> <CNNscore>
0.3097916842

> <CNNaffinity>
3.0444023609

> <CNN_VS>
0.9431305528

> <CNNaffinity_variance>
0.7605991960

$$$$
ox2_orig_f8_pose9


 18 19  0  0  0  0  0  0  0  0999 V2000
    0.1040   -0.1380   -1.4700 C   0  0  0  0  0  0  0  0  0  0  0  0
   -0.4410   -1.3820   -1.7080 C   0  0  0  0  0  0  0  0  0  0  0  0
   -0.3740   -2.3670   -0.7500 C   0  0  0  0  0  0  0  0  0  0  0  0
    0.2510   -2.1190    0.4480 C   0  0  0  0  0  0  0  0  0  0  0  0
    0.7910   -0.8600    0.7040 C   0  0  0  0  0  0  0  0  0  0  0  0
    1.3760   -0.6090    1.8860 O   0  0  0  0  0  0  0  0  0  0  0  0
    0.7140    0.1180   -0.2610 C   0  0  0  0  0  0  0  0  0  0  0  0
    1.4238   -1.2811    2.5372 H   0  0  0  0  0  0  0  0  0  0  0  0
    0.4850    0.4850   -3.7420 C   0  0  0  0  0  0  0  0  0  0  0  0
    0.0020    0.7840   -2.4650 O   0  0  0  0  0  0  0  0  0  0  0  0
    0.3080   -3.1850    1.4530 C   0  0  0  0  0  0  0  0  0  0  0  0
    1.2340   -3.7950    1.4680 O   0  0  0  0  0  0  0  0  0  0  0  0
   -0.6050   -3.4660    2.5330 C   0  0  0  0  0  0  0  0  0  0  0  0
   -1.8930   -3.8400    2.2680 C   0  0  0  0  0  0  0  0  0  0  0  0
   -2.7630   -4.1190    3.2980 C   0  0  0  0  0  0  0  0  0  0  0  0
   -2.3500   -4.0080    4.6050 C   0  0  0  0  0  0  0  0  0  0  0  0
   -1.0470   -3.6520    4.8770 C   0  0  0  0  0  0  0  0  0  0  0  0
   -0.1610   -3.3890    3.8430 C   0  0  0  0  0  0  0  0  0  0  0  0
 10  9  1  0
  1 10  1  0
  2  1  1  0
  3  2  2  0
  4  3  1  0
 11  4  1  0
 12 11  2  0
 13 11  1  0
 14 13  2  0
 15 14  1  0
 16 15  2  0
 17 16  1  0
 18 17  2  0
 18 13  1  0
  5  4  2  0
  6  5  1  0
  7  5  1  0
  7  1  2  0
  6  8  1  0
M  END
> <structure>
ox2_orig_f8

> <pose>
9

> <is_reference>
0

> <rmsd_to_reference_A>
7.171

> <vina_score>
-5.1

> <minimizedAffinity>
-5.20826

> <CNNscore>
0.6757133007

> <CNNaffinity>
2.9829967022

> <CNN_VS>
2.0156505108

> <CNNaffinity_variance>
0.8479021192

$$$$
