bg33_3_dockpose1
     RDKit          3D

 20 20  0  0  0  0  0  0  0  0999 V2000
    6.2060    2.0510    0.4810 C   0  0  0  0  0  0  0  0  0  0  0  0
    6.2770    0.6360   -0.1330 C   0  0  0  0  0  0  0  0  0  0  0  0
    7.6220    0.4560   -0.7620 C   0  0  0  0  0  0  0  0  0  0  0  0
    7.5580    0.3640   -2.3030 C   0  0  0  0  0  0  0  0  0  0  0  0
    6.1380   -0.0140   -2.6810 C   0  0  1  0  0  0  0  0  0  0  0  0
    5.6430    0.8760   -3.7230 C   0  0  0  0  0  0  0  0  0  0  0  0
    5.6350    2.3200   -3.3210 C   0  0  0  0  0  0  0  0  0  0  0  0
    6.0810   -1.3890   -3.1780 O   0  0  0  0  0  0  0  0  0  0  0  0
    5.2820   -2.1830   -2.6030 C   0  0  0  0  0  0  0  0  0  0  0  0
    4.3530   -2.6020   -3.2530 O   0  0  0  0  0  0  0  0  0  0  0  0
    5.4800   -2.5740   -1.1000 C   0  0  0  0  0  0  0  0  0  0  0  0
    6.6420   -3.1570   -0.7270 C   0  0  0  0  0  0  0  0  0  0  0  0
    6.8620   -3.6350    0.6140 C   0  0  0  0  0  0  0  0  0  0  0  0
    6.1640   -4.7140    1.1110 C   0  0  0  0  0  0  0  0  0  0  0  0
    6.3880   -5.2110    2.3440 C   0  0  0  0  0  0  0  0  0  0  0  0
    7.3480   -4.6090    3.1250 C   0  0  0  0  0  0  0  0  0  0  0  0
    7.6060   -5.0210    4.3840 O   0  0  0  0  0  0  0  0  0  0  0  0
    7.7020   -3.9970    5.3590 C   0  0  0  0  0  0  0  0  0  0  0  0
    8.0310   -3.5200    2.6800 C   0  0  0  0  0  0  0  0  0  0  0  0
    7.7900   -3.0370    1.4110 C   0  0  0  0  0  0  0  0  0  0  0  0
  2  1  1  0
  3  2  1  0
  4  3  1  0
  5  4  1  6
  6  5  1  0
  7  6  1  0
  8  5  1  0
  9  8  1  0
 10  9  2  0
 11  9  1  0
 12 11  2  3
 13 12  1  0
 14 13  1  0
 15 14  2  0
 16 15  1  0
 17 16  1  0
 18 17  1  0
 19 16  2  0
 20 19  1  0
 20 13  2  0
M  END
$$$$
