s3_esm2_f4_ligand
     RDKit          3D

 44 44  0  0  0  0  0  0  0  0999 V2000
   -1.1710    5.7180    6.9630 C   0  0  1  0  0  0  0  0  0  0  0  0
   -2.2770    4.7050    7.2750 C   0  0  1  0  0  0  0  0  0  0  0  0
   -2.0390    3.4150    6.5310 C   0  0  1  0  0  0  0  0  0  0  0  0
   -3.1520    2.4360    6.7790 C   0  0  1  0  0  0  0  0  0  0  0  0
   -3.0810    1.2550    5.8210 C   0  0  2  0  0  0  0  0  0  0  0  0
   -4.4740    0.8940    5.3620 C   0  0  1  0  0  0  0  0  0  0  0  0
   -4.7350   -0.5800    5.2670 C   0  0  1  0  0  0  0  0  0  0  0  0
   -2.4850    0.1540    6.4820 O   0  0  0  0  0  0  0  0  0  0  0  0
   -1.2280   -0.2250    6.1340 C   0  0  0  0  0  0  0  0  0  0  0  0
   -0.5130    0.4790    5.4740 O   0  0  0  0  0  0  0  0  0  0  0  0
   -0.8330   -1.5520    6.5970 C   0  0  0  0  0  0  0  0  0  0  0  0
   -1.5270   -2.1810    7.5380 C   0  0  0  0  0  0  0  0  0  0  0  0
   -1.3070   -3.5980    7.9010 C   0  0  0  0  0  0  0  0  0  0  0  0
   -0.5420   -4.4300    7.1090 C   0  0  0  0  0  0  0  0  0  0  0  0
   -0.3820   -5.7590    7.4560 C   0  0  0  0  0  0  0  0  0  0  0  0
   -0.9740   -6.2660    8.5740 C   0  0  0  0  0  0  0  0  0  0  0  0
   -0.8030   -7.5720    8.8740 O   0  0  0  0  0  0  0  0  0  0  0  0
   -1.6610   -8.1990    9.8130 C   0  0  1  0  0  0  0  0  0  0  0  0
   -1.7330   -5.4340    9.3710 C   0  0  0  0  0  0  0  0  0  0  0  0
   -1.8930   -4.1070    9.0290 C   0  0  0  0  0  0  0  0  0  0  0  0
   -0.7505    6.1031    7.9037 H   0  0  0  0  0  0  0  0  0  0  0  0
   -0.3775    5.2268    6.3806 H   0  0  0  0  0  0  0  0  0  0  0  0
   -1.5908    6.5515    6.3806 H   0  0  0  0  0  0  0  0  0  0  0  0
   -2.2875    4.5024    8.3561 H   0  0  0  0  0  0  0  0  0  0  0  0
   -3.2429    5.1249    6.9578 H   0  0  0  0  0  0  0  0  0  0  0  0
   -1.9802    3.6271    5.4532 H   0  0  0  0  0  0  0  0  0  0  0  0
   -1.0976    2.9729    6.8891 H   0  0  0  0  0  0  0  0  0  0  0  0
   -3.0769    2.0637    7.8113 H   0  0  0  0  0  0  0  0  0  0  0  0
   -4.1090    2.9538    6.6177 H   0  0  0  0  0  0  0  0  0  0  0  0
   -2.4740    1.5219    4.9433 H   0  0  0  0  0  0  0  0  0  0  0  0
   -5.1930    1.3250    6.0742 H   0  0  0  0  0  0  0  0  0  0  0  0
   -4.5825    1.2972    4.3443 H   0  0  0  0  0  0  0  0  0  0  0  0
   -4.8103   -1.0050    6.2788 H   0  0  0  0  0  0  0  0  0  0  0  0
   -5.6775   -0.7514    4.7263 H   0  0  0  0  0  0  0  0  0  0  0  0
   -3.9087   -1.0646    4.7263 H   0  0  0  0  0  0  0  0  0  0  0  0
    0.0521   -2.0376    6.1601 H   0  0  0  0  0  0  0  0  0  0  0  0
   -2.3056   -1.6196    8.0753 H   0  0  0  0  0  0  0  0  0  0  0  0
   -0.0598   -4.0362    6.2022 H   0  0  0  0  0  0  0  0  0  0  0  0
    0.2312   -6.4156    6.8213 H   0  0  0  0  0  0  0  0  0  0  0  0
   -1.3284   -7.9559   10.8330 H   0  0  0  0  0  0  0  0  0  0  0  0
   -2.6900   -7.8386    9.6672 H   0  0  0  0  0  0  0  0  0  0  0  0
   -1.6301   -9.2889    9.6672 H   0  0  0  0  0  0  0  0  0  0  0  0
   -2.2109   -5.8289   10.2797 H   0  0  0  0  0  0  0  0  0  0  0  0
   -2.4987   -3.4499    9.6703 H   0  0  0  0  0  0  0  0  0  0  0  0
  2  1  1  0
  3  2  1  0
  4  3  1  0
  5  4  1  0
  6  5  1  0
  7  6  1  0
  8  5  1  0
  9  8  1  0
 10  9  2  0
 11  9  1  0
 12 11  2  3
 13 12  1  0
 14 13  1  0
 15 14  2  0
 16 15  1  0
 17 16  1  0
 18 17  1  0
 19 16  2  0
 20 19  1  0
 20 13  2  0
  1 21  1  1
  1 22  1  0
  1 23  1  0
  2 24  1  1
  2 25  1  0
  3 26  1  6
  3 27  1  0
  4 28  1  1
  4 29  1  0
  5 30  1  6
  6 31  1  1
  6 32  1  0
  7 33  1  1
  7 34  1  0
  7 35  1  0
 11 36  1  0
 12 37  1  0
 14 38  1  0
 15 39  1  0
 18 40  1  1
 18 41  1  0
 18 42  1  0
 19 43  1  0
 20 44  1  0
M  END
