orig_f12_dockpose5
     RDKit          3D

 20 20  0  0  0  0  0  0  0  0999 V2000
   -3.9640    0.5590   -4.5290 C   0  0  0  0  0  0  0  0  0  0  0  0
   -3.5320    0.4590   -3.0850 C   0  0  0  0  0  0  0  0  0  0  0  0
   -3.0240    1.7720   -2.5610 C   0  0  0  0  0  0  0  0  0  0  0  0
   -1.7110    1.6230   -1.8650 C   0  0  0  0  0  0  0  0  0  0  0  0
   -1.5420    2.5360   -0.6700 C   0  0  2  0  0  0  0  0  0  0  0  0
   -0.5580    1.9480    0.3300 C   0  0  0  0  0  0  0  0  0  0  0  0
   -0.0190    0.5750   -0.0290 C   0  0  0  0  0  0  0  0  0  0  0  0
   -2.7960    2.7060   -0.0550 O   0  0  0  0  0  0  0  0  0  0  0  0
   -3.1370    3.9050    0.3950 C   0  0  0  0  0  0  0  0  0  0  0  0
   -3.9740    4.0720    1.2560 O   0  0  0  0  0  0  0  0  0  0  0  0
   -2.4310    4.9900   -0.3010 C   0  0  0  0  0  0  0  0  0  0  0  0
   -2.7160    6.2600    0.0100 C   0  0  0  0  0  0  0  0  0  0  0  0
   -2.1400    7.4010   -0.7240 C   0  0  0  0  0  0  0  0  0  0  0  0
   -2.2480    7.5220   -2.0900 C   0  0  0  0  0  0  0  0  0  0  0  0
   -1.7260    8.6270   -2.7430 C   0  0  0  0  0  0  0  0  0  0  0  0
   -1.0870    9.6050   -2.0290 C   0  0  0  0  0  0  0  0  0  0  0  0
   -0.5690   10.7240   -2.6160 O   0  0  0  0  0  0  0  0  0  0  0  0
   -0.9650   11.0780   -3.9350 C   0  0  0  0  0  0  0  0  0  0  0  0
   -0.9760    9.4930   -0.6550 C   0  0  0  0  0  0  0  0  0  0  0  0
   -1.4930    8.3780   -0.0070 C   0  0  0  0  0  0  0  0  0  0  0  0
  2  1  1  0
  3  2  1  0
  4  3  1  0
  5  4  1  6
  6  5  1  0
  7  6  1  0
  8  5  1  0
  9  8  1  0
 10  9  2  0
 11  9  1  0
 12 11  2  3
 13 12  1  0
 14 13  1  0
 15 14  2  0
 16 15  1  0
 17 16  1  0
 18 17  1  0
 19 16  2  0
 20 19  1  0
 20 13  2  0
M  END
