s2_esm2_control_pose0_reference
     RDKit          3D

 20 20  0  0  0  0  0  0  0  0999 V2000
   -6.0680   -4.1780    7.1590 C   0  0  0  0  0  0  0  0  0  0  0  0
   -5.9590   -2.6860    7.4530 C   0  0  0  0  0  0  0  0  0  0  0  0
   -5.3980   -1.9430    6.2770 C   0  0  0  0  0  0  0  0  0  0  0  0
   -5.3660   -0.4640    6.5080 C   0  0  0  0  0  0  0  0  0  0  0  0
   -4.7460    0.3200    5.3770 C   0  0  2  0  0  0  0  0  0  0  0  0
   -4.9560    1.8150    5.6070 C   0  0  0  0  0  0  0  0  0  0  0  0
   -3.6710    2.6210    5.6820 C   0  0  0  0  0  0  0  0  0  0  0  0
   -5.3640   -0.0380    4.1530 O   0  0  0  0  0  0  0  0  0  0  0  0
   -4.6420   -0.6730    3.2070 C   0  0  0  0  0  0  0  0  0  0  0  0
   -3.4740   -0.9050    3.3720 O   0  0  0  0  0  0  0  0  0  0  0  0
   -5.3930   -1.0710    1.9890 C   0  0  0  0  0  0  0  0  0  0  0  0
   -4.7310   -1.7510    1.0110 C   0  0  0  0  0  0  0  0  0  0  0  0
   -5.3770   -2.2380   -0.2240 C   0  0  0  0  0  0  0  0  0  0  0  0
   -4.5890   -2.8770   -1.1640 C   0  0  0  0  0  0  0  0  0  0  0  0
   -5.1420   -3.3680   -2.3320 C   0  0  0  0  0  0  0  0  0  0  0  0
   -6.4830   -3.2290   -2.5780 C   0  0  0  0  0  0  0  0  0  0  0  0
   -6.9750   -3.7310   -3.7350 O   0  0  0  0  0  0  0  0  0  0  0  0
   -8.3740   -3.6930   -3.9860 C   0  0  0  0  0  0  0  0  0  0  0  0
   -7.2720   -2.5960   -1.6440 C   0  0  0  0  0  0  0  0  0  0  0  0
   -6.7160   -2.1010   -0.4710 C   0  0  0  0  0  0  0  0  0  0  0  0
  2  1  1  0
  3  2  1  0
  4  3  1  0
  5  4  1  1
  6  5  1  0
  7  6  1  0
  8  5  1  0
  9  8  1  0
 10  9  2  0
 11  9  1  0
 12 11  2  3
 13 12  1  0
 14 13  1  0
 15 14  2  0
 16 15  1  0
 17 16  1  0
 18 17  1  0
 19 16  2  0
 20 19  1  0
 20 13  2  0
M  END
>  <structure>  (1) 
s2_esm2_control

>  <pose>  (1) 
0

>  <is_reference>  (1) 
1

>  <rmsd_to_reference_A>  (1) 
0.000

>  <vina_score>  (1) 


$$$$
