bgox31_3_ligand
     RDKit          3D

 29 30  0  0  0  0  0  0  0  0999 V2000
   -5.7804    0.2196    7.3652 C   0  0  0  0  0  0  0  0  0  0  0  0
   -5.7043   -0.3713    6.0990 O   0  0  0  0  0  0  0  0  0  0  0  0
   -6.0008    0.3919    4.9549 C   0  0  0  0  0  0  0  0  0  0  0  0
   -6.1661   -0.2401    3.7508 C   0  0  0  0  0  0  0  0  0  0  0  0
   -6.4572    0.4952    2.6073 C   0  0  0  0  0  0  0  0  0  0  0  0
   -6.5381    1.8608    2.6298 C   0  0  0  0  0  0  0  0  0  0  0  0
   -6.8773    2.6616    1.4069 C   0  0  0  0  0  0  0  0  0  0  0  0
   -7.6444    3.6090    1.5025 O   0  0  0  0  0  0  0  0  0  0  0  0
   -6.3201    2.3347    0.0471 C   0  0  0  0  0  0  0  0  0  0  0  0
   -7.1418    2.3960   -1.0479 C   0  0  0  0  0  0  0  0  0  0  0  0
   -6.6219    2.0660   -2.2740 C   0  0  0  0  0  0  0  0  0  0  0  0
   -5.2940    1.8162   -2.3985 C   0  0  0  0  0  0  0  0  0  0  0  0
   -4.4118    1.8263   -1.2940 C   0  0  0  0  0  0  0  0  0  0  0  0
   -4.9855    2.0632   -0.0569 C   0  0  0  0  0  0  0  0  0  0  0  0
   -6.3447    2.4990    3.8690 C   0  0  0  0  0  0  0  0  0  0  0  0
   -6.5127    3.8812    3.8608 O   0  0  0  0  0  0  0  0  0  0  0  0
   -6.0990    1.8018    4.9998 C   0  0  0  0  0  0  0  0  0  0  0  0
   -6.1678    1.2446    7.2688 H   0  0  0  0  0  0  0  0  0  0  0  0
   -6.4550   -0.3687    8.0044 H   0  0  0  0  0  0  0  0  0  0  0  0
   -4.7781    0.2475    7.8176 H   0  0  0  0  0  0  0  0  0  0  0  0
   -6.0681   -1.3340    3.6883 H   0  0  0  0  0  0  0  0  0  0  0  0
   -6.6272   -0.0353    1.6589 H   0  0  0  0  0  0  0  0  0  0  0  0
   -8.1933    2.7026   -0.9463 H   0  0  0  0  0  0  0  0  0  0  0  0
   -7.2797    2.0040   -3.1535 H   0  0  0  0  0  0  0  0  0  0  0  0
   -4.8884    1.5975   -3.3973 H   0  0  0  0  0  0  0  0  0  0  0  0
   -3.3314    1.6556   -1.4111 H   0  0  0  0  0  0  0  0  0  0  0  0
   -4.3622    2.0326    0.8490 H   0  0  0  0  0  0  0  0  0  0  0  0
   -6.3930    4.3994    4.6958 H   0  0  0  0  0  0  0  0  0  0  0  0
   -5.9752    2.3312    5.9560 H   0  0  0  0  0  0  0  0  0  0  0  0
  2  1  1  0
  3  2  1  0
  4  3  1  0
  5  4  2  0
  6  5  1  0
  7  6  1  0
  8  7  2  0
  9  7  1  0
 10  9  2  0
 11 10  1  0
 12 11  2  0
 13 12  1  0
 14 13  2  0
 14  9  1  0
 15  6  2  0
 16 15  1  0
 17 15  1  0
 17  3  2  0
  1 18  1  0
  1 19  1  0
  1 20  1  0
  4 21  1  0
  5 22  1  0
 10 23  1  0
 11 24  1  0
 12 25  1  0
 13 26  1  0
 14 27  1  0
 16 28  1  0
 17 29  1  0
M  END
$$$$
