bgox31_3_ligand
 OpenBabel10092621243D

 18 19  0  0  0  0  0  0  0  0999 V2000
   -5.2390    2.3200   -1.8030 C   0  0  0  0  0  0  0  0  0  0  0  0
   -5.3760    0.9680   -1.9760 C   0  0  0  0  0  3  0  0  0  0  0  0
   -5.8380    0.4590   -3.1840 C   0  0  0  0  0  3  0  0  0  0  0  0
   -6.1210    1.2730   -4.2480 C   0  0  0  0  0  0  0  0  0  0  0  0
   -5.9540    2.6570   -4.0630 C   0  0  0  0  0  0  0  0  0  0  0  0
   -5.5430    3.1770   -2.8860 C   0  0  0  0  0  3  0  0  0  0  0  0
   -4.7510    1.9770    0.5490 C   0  0  0  0  0  1  0  0  0  0  0  0
   -4.7660    2.8130   -0.5730 O   0  0  0  0  0  0  0  0  0  0  0  0
   -6.6450    0.7360   -5.5470 C   0  0  0  0  0  0  0  0  0  0  0  0
   -7.7980    0.9730   -5.8750 O   0  0  0  0  0  0  0  0  0  0  0  0
   -5.8060   -0.1080   -6.4700 C   0  0  0  0  0  0  0  0  0  0  0  0
   -5.0530    0.5020   -7.4400 C   0  0  0  0  0  3  0  0  0  0  0  0
   -4.3190   -0.2870   -8.2890 C   0  0  0  0  0  3  0  0  0  0  0  0
   -4.2490   -1.6250   -8.0740 C   0  0  0  0  0  3  0  0  0  0  0  0
   -4.9530   -2.2660   -7.0310 C   0  0  0  0  0  3  0  0  0  0  0  0
   -5.7640   -1.4550   -6.2550 C   0  0  0  0  0  3  0  0  0  0  0  0
   -6.3260    3.4520   -5.1440 O   0  0  0  0  0  0  0  0  0  0  0  0
   -7.2830    3.5480   -5.3820 H   0  0  0  0  0  0  0  0  0  0  0  0
  1  8  1  0  0  0  0
  2  1  1  0  0  0  0
  3  2  2  0  0  0  0
  4  5  2  0  0  0  0
  4  3  1  0  0  0  0
  5  6  1  0  0  0  0
  6  1  2  0  0  0  0
  8  7  1  0  0  0  0
  9  4  1  0  0  0  0
 10  9  2  0  0  0  0
 11 16  1  0  0  0  0
 11  9  1  0  0  0  0
 12 11  2  0  0  0  0
 13 14  2  0  0  0  0
 13 12  1  0  0  0  0
 14 15  1  0  0  0  0
 15 16  2  0  0  0  0
 17  5  1  0  0  0  0
 18 17  1  0  0  0  0
M  END
>  <MODEL>
1

>  <REMARK>
 VINA RESULT:      -5.2      0.000      0.000
  Name = bgox31_3_ligand
  5 active torsions:
  status: ('A' for Active; 'I' for Inactive)
    1  A    between atoms: C_1  and  O_2
    2  A    between atoms: O_2  and  C_3
    3  A    between atoms: C_6  and  C_7
    4  A    between atoms: C_7  and  C_9
    5  A    between atoms: C_15  and  O_16
                            x       y       z     vdW  Elec       q    Type
                         _______ _______ _______ _____ _____    ______ ____

>  <TORSDO>
F 4

$$$$
bgox31_3_ligand
 OpenBabel10092621243D

 18 19  0  0  0  0  0  0  0  0999 V2000
   -5.2470    2.2550   -1.6210 C   0  0  0  0  0  0  0  0  0  0  0  0
   -5.3110    3.0540   -2.7320 C   0  0  0  0  0  3  0  0  0  0  0  0
   -5.7810    2.5430   -3.9370 C   0  0  0  0  0  3  0  0  0  0  0  0
   -6.2380    1.2570   -4.0450 C   0  0  0  0  0  0  0  0  0  0  0  0
   -6.1860    0.4540   -2.8910 C   0  0  0  0  0  0  0  0  0  0  0  0
   -5.6980    0.9180   -1.7200 C   0  0  0  0  0  3  0  0  0  0  0  0
   -4.6090    1.9610    0.7010 C   0  0  0  0  0  1  0  0  0  0  0  0
   -4.7710    2.7940   -0.4120 O   0  0  0  0  0  0  0  0  0  0  0  0
   -6.7230    0.6880   -5.3460 C   0  0  0  0  0  0  0  0  0  0  0  0
   -7.9010    0.8020   -5.6510 O   0  0  0  0  0  0  0  0  0  0  0  0
   -5.8130   -0.0430   -6.2970 C   0  0  0  0  0  0  0  0  0  0  0  0
   -5.7130   -1.4080   -6.2160 C   0  0  0  0  0  3  0  0  0  0  0  0
   -4.8560   -2.0520   -7.0720 C   0  0  0  0  0  3  0  0  0  0  0  0
   -4.2320   -1.3530   -8.0540 C   0  0  0  0  0  3  0  0  0  0  0  0
   -4.3840    0.0440   -8.2070 C   0  0  0  0  0  3  0  0  0  0  0  0
   -5.1750    0.6780   -7.2650 C   0  0  0  0  0  3  0  0  0  0  0  0
   -6.5880   -0.8680   -3.0650 O   0  0  0  0  0  0  0  0  0  0  0  0
   -7.5460   -1.0810   -3.1910 H   0  0  0  0  0  0  0  0  0  0  0  0
  1  8  1  0  0  0  0
  2  1  2  0  0  0  0
  3  2  1  0  0  0  0
  4  3  2  0  0  0  0
  4  5  1  0  0  0  0
  5  6  2  0  0  0  0
  6  1  1  0  0  0  0
  8  7  1  0  0  0  0
  9  4  1  0  0  0  0
 10  9  2  0  0  0  0
 11 12  1  0  0  0  0
 11  9  1  0  0  0  0
 13 12  2  0  0  0  0
 14 13  1  0  0  0  0
 15 14  2  0  0  0  0
 15 16  1  0  0  0  0
 16 11  2  0  0  0  0
 17  5  1  0  0  0  0
 18 17  1  0  0  0  0
M  END
>  <MODEL>
2

>  <REMARK>
 VINA RESULT:      -5.0      0.906      2.022
  Name = bgox31_3_ligand
  5 active torsions:
  status: ('A' for Active; 'I' for Inactive)
    1  A    between atoms: C_1  and  O_2
    2  A    between atoms: O_2  and  C_3
    3  A    between atoms: C_6  and  C_7
    4  A    between atoms: C_7  and  C_9
    5  A    between atoms: C_15  and  O_16
                            x       y       z     vdW  Elec       q    Type
                         _______ _______ _______ _____ _____    ______ ____

>  <TORSDO>
F 4

$$$$
bgox31_3_ligand
 OpenBabel10092621243D

 18 19  0  0  0  0  0  0  0  0999 V2000
   -6.2600   -0.2830    4.5310 C   0  0  0  0  0  0  0  0  0  0  0  0
   -4.9390   -0.1540    4.1930 C   0  0  0  0  0  3  0  0  0  0  0  0
   -4.5220    0.8960    3.3820 C   0  0  0  0  0  3  0  0  0  0  0  0
   -5.3920    1.8550    2.9400 C   0  0  0  0  0  0  0  0  0  0  0  0
   -6.7430    1.7220    3.3130 C   0  0  0  0  0  0  0  0  0  0  0  0
   -7.1770    0.6900    4.0680 C   0  0  0  0  0  3  0  0  0  0  0  0
   -7.3820   -2.4160    4.8070 C   0  0  0  0  0  1  0  0  0  0  0  0
   -6.6600   -1.3510    5.3550 O   0  0  0  0  0  0  0  0  0  0  0  0
   -4.9570    2.9770    2.0440 C   0  0  0  0  0  0  0  0  0  0  0  0
   -4.6480    4.0530    2.5340 O   0  0  0  0  0  0  0  0  0  0  0  0
   -4.9010    2.8390    0.5460 C   0  0  0  0  0  0  0  0  0  0  0  0
   -5.2360    1.6420   -0.0320 C   0  0  0  0  0  3  0  0  0  0  0  0
   -5.1500    1.5280   -1.3960 C   0  0  0  0  0  3  0  0  0  0  0  0
   -4.8670    2.6230   -2.1470 C   0  0  0  0  0  3  0  0  0  0  0  0
   -4.5970    3.8870   -1.5770 C   0  0  0  0  0  3  0  0  0  0  0  0
   -4.5920    3.9440   -0.1940 C   0  0  0  0  0  3  0  0  0  0  0  0
   -7.6050    2.6750    2.7780 O   0  0  0  0  0  0  0  0  0  0  0  0
   -7.8810    3.4540    3.3230 H   0  0  0  0  0  0  0  0  0  0  0  0
  1  8  1  0  0  0  0
  2  1  1  0  0  0  0
  3  2  2  0  0  0  0
  4  5  2  0  0  0  0
  4  3  1  0  0  0  0
  5  6  1  0  0  0  0
  6  1  2  0  0  0  0
  7  8  1  0  0  0  0
  9 10  2  0  0  0  0
  9  4  1  0  0  0  0
 11  9  1  0  0  0  0
 12 11  1  0  0  0  0
 13 12  2  0  0  0  0
 14 15  2  0  0  0  0
 14 13  1  0  0  0  0
 15 16  1  0  0  0  0
 16 11  2  0  0  0  0
 17  5  1  0  0  0  0
 17 18  1  0  0  0  0
M  END
>  <MODEL>
3

>  <REMARK>
 VINA RESULT:      -4.8      5.021      7.570
  Name = bgox31_3_ligand
  5 active torsions:
  status: ('A' for Active; 'I' for Inactive)
    1  A    between atoms: C_1  and  O_2
    2  A    between atoms: O_2  and  C_3
    3  A    between atoms: C_6  and  C_7
    4  A    between atoms: C_7  and  C_9
    5  A    between atoms: C_15  and  O_16
                            x       y       z     vdW  Elec       q    Type
                         _______ _______ _______ _____ _____    ______ ____

>  <TORSDO>
F 4

$$$$
bgox31_3_ligand
 OpenBabel10092621243D

 18 19  0  0  0  0  0  0  0  0999 V2000
   -6.2490    0.8410   -4.5480 C   0  0  0  0  0  0  0  0  0  0  0  0
   -6.0410    0.1500   -3.3840 C   0  0  0  0  0  3  0  0  0  0  0  0
   -5.6100    0.8150   -2.2410 C   0  0  0  0  0  3  0  0  0  0  0  0
   -5.4290    2.1710   -2.2220 C   0  0  0  0  0  0  0  0  0  0  0  0
   -5.6670    2.8720   -3.4190 C   0  0  0  0  0  0  0  0  0  0  0  0
   -6.0500    2.2410   -4.5510 C   0  0  0  0  0  3  0  0  0  0  0  0
   -5.8220   -0.7370   -6.3400 C   0  0  0  0  0  1  0  0  0  0  0  0
   -6.6890    0.1500   -5.6920 O   0  0  0  0  0  0  0  0  0  0  0  0
   -4.9390    2.8950   -1.0020 C   0  0  0  0  0  0  0  0  0  0  0  0
   -4.1600    3.8280   -1.1290 O   0  0  0  0  0  0  0  0  0  0  0  0
   -5.3580    2.5050    0.3910 C   0  0  0  0  0  0  0  0  0  0  0  0
   -6.6640    2.6700    0.7710 C   0  0  0  0  0  3  0  0  0  0  0  0
   -7.0180    2.3360    2.0530 C   0  0  0  0  0  3  0  0  0  0  0  0
   -6.1140    1.7360    2.8680 C   0  0  0  0  0  3  0  0  0  0  0  0
   -4.7820    1.4830    2.4700 C   0  0  0  0  0  3  0  0  0  0  0  0
   -4.4290    1.9240    1.2060 C   0  0  0  0  0  3  0  0  0  0  0  0
   -5.3970    4.2370   -3.3750 O   0  0  0  0  0  0  0  0  0  0  0  0
   -6.0300    4.8530   -2.9300 H   0  0  0  0  0  0  0  0  0  0  0  0
  1  2  1  0  0  0  0
  2  3  2  0  0  0  0
  3  4  1  0  0  0  0
  4  9  1  0  0  0  0
  5 17  1  0  0  0  0
  5  4  2  0  0  0  0
  6  1  2  0  0  0  0
  6  5  1  0  0  0  0
  7  8  1  0  0  0  0
  8  1  1  0  0  0  0
  9 11  1  0  0  0  0
 10  9  2  0  0  0  0
 11 12  2  0  0  0  0
 11 16  1  0  0  0  0
 12 13  1  0  0  0  0
 13 14  2  0  0  0  0
 15 14  1  0  0  0  0
 16 15  2  0  0  0  0
 17 18  1  0  0  0  0
M  END
>  <MODEL>
4

>  <REMARK>
 VINA RESULT:      -4.7      1.446      6.652
  Name = bgox31_3_ligand
  5 active torsions:
  status: ('A' for Active; 'I' for Inactive)
    1  A    between atoms: C_1  and  O_2
    2  A    between atoms: O_2  and  C_3
    3  A    between atoms: C_6  and  C_7
    4  A    between atoms: C_7  and  C_9
    5  A    between atoms: C_15  and  O_16
                            x       y       z     vdW  Elec       q    Type
                         _______ _______ _______ _____ _____    ______ ____

>  <TORSDO>
F 4

$$$$
bgox31_3_ligand
 OpenBabel10092621243D

 18 19  0  0  0  0  0  0  0  0999 V2000
   -6.1520    2.0130   -2.2180 C   0  0  0  0  0  0  0  0  0  0  0  0
   -5.1220    1.3120   -1.6500 C   0  0  0  0  0  3  0  0  0  0  0  0
   -4.7820    1.5190   -0.3180 C   0  0  0  0  0  3  0  0  0  0  0  0
   -5.4860    2.3810    0.4790 C   0  0  0  0  0  0  0  0  0  0  0  0
   -6.5560    3.0790   -0.1110 C   0  0  0  0  0  0  0  0  0  0  0  0
   -6.8790    2.9210   -1.4130 C   0  0  0  0  0  3  0  0  0  0  0  0
   -6.1970    0.5450   -4.1490 C   0  0  0  0  0  1  0  0  0  0  0  0
   -6.4800    1.7860   -3.5670 O   0  0  0  0  0  0  0  0  0  0  0  0
   -5.1130    2.6320    1.9110 C   0  0  0  0  0  0  0  0  0  0  0  0
   -4.5440    3.6710    2.2110 O   0  0  0  0  0  0  0  0  0  0  0  0
   -5.3960    1.6380    3.0060 C   0  0  0  0  0  0  0  0  0  0  0  0
   -6.6540    1.5730    3.5450 C   0  0  0  0  0  3  0  0  0  0  0  0
   -6.8840    0.6800    4.5610 C   0  0  0  0  0  3  0  0  0  0  0  0
   -5.9130   -0.1980    4.9200 C   0  0  0  0  0  3  0  0  0  0  0  0
   -4.6330   -0.2020    4.3210 C   0  0  0  0  0  3  0  0  0  0  0  0
   -4.4010    0.7760    3.3700 C   0  0  0  0  0  3  0  0  0  0  0  0
   -7.1940    4.0010    0.7140 O   0  0  0  0  0  0  0  0  0  0  0  0
   -6.7660    4.2890    1.5590 H   0  0  0  0  0  0  0  0  0  0  0  0
  1  2  2  0  0  0  0
  1  6  1  0  0  0  0
  2  3  1  0  0  0  0
  3  4  2  0  0  0  0
  4  9  1  0  0  0  0
  5  4  1  0  0  0  0
  5 17  1  0  0  0  0
  6  5  2  0  0  0  0
  7  8  1  0  0  0  0
  8  1  1  0  0  0  0
  9 10  2  0  0  0  0
  9 11  1  0  0  0  0
 11 16  2  0  0  0  0
 11 12  1  0  0  0  0
 12 13  2  0  0  0  0
 13 14  1  0  0  0  0
 15 14  2  0  0  0  0
 16 15  1  0  0  0  0
 17 18  1  0  0  0  0
M  END
>  <MODEL>
5

>  <REMARK>
 VINA RESULT:      -4.7      2.789      7.940
  Name = bgox31_3_ligand
  5 active torsions:
  status: ('A' for Active; 'I' for Inactive)
    1  A    between atoms: C_1  and  O_2
    2  A    between atoms: O_2  and  C_3
    3  A    between atoms: C_6  and  C_7
    4  A    between atoms: C_7  and  C_9
    5  A    between atoms: C_15  and  O_16
                            x       y       z     vdW  Elec       q    Type
                         _______ _______ _______ _____ _____    ______ ____

>  <TORSDO>
F 4

$$$$
bgox31_3_ligand
 OpenBabel10092621243D

 18 19  0  0  0  0  0  0  0  0999 V2000
    0.1210   -6.0130    9.7180 C   0  0  0  0  0  0  0  0  0  0  0  0
   -0.6770   -5.9120    8.6100 C   0  0  0  0  0  3  0  0  0  0  0  0
   -0.2540   -6.4290    7.3900 C   0  0  0  0  0  3  0  0  0  0  0  0
    0.9360   -7.0940    7.2640 C   0  0  0  0  0  0  0  0  0  0  0  0
    1.7370   -7.2090    8.4160 C   0  0  0  0  0  0  0  0  0  0  0  0
    1.3620   -6.6810    9.6010 C   0  0  0  0  0  3  0  0  0  0  0  0
   -1.2020   -4.3920   10.9460 C   0  0  0  0  0  1  0  0  0  0  0  0
   -0.3290   -5.4850   10.9420 O   0  0  0  0  0  0  0  0  0  0  0  0
    1.4150   -7.6330    5.9480 C   0  0  0  0  0  0  0  0  0  0  0  0
    1.2570   -8.8170    5.6910 O   0  0  0  0  0  0  0  0  0  0  0  0
    2.1060   -6.7710    4.9250 C   0  0  0  0  0  0  0  0  0  0  0  0
    2.4270   -5.4770    5.2430 C   0  0  0  0  0  3  0  0  0  0  0  0
    3.0300   -4.7000    4.2870 C   0  0  0  0  0  3  0  0  0  0  0  0
    3.4100   -5.2550    3.1080 C   0  0  0  0  0  3  0  0  0  0  0  0
    3.1600   -6.6090    2.7900 C   0  0  0  0  0  3  0  0  0  0  0  0
    2.4610   -7.3390    3.7350 C   0  0  0  0  0  3  0  0  0  0  0  0
    2.9720   -7.8230    8.2240 O   0  0  0  0  0  0  0  0  0  0  0  0
    3.2950   -8.4980    8.8730 H   0  0  0  0  0  0  0  0  0  0  0  0
  1  8  1  0  0  0  0
  2  1  2  0  0  0  0
  3  2  1  0  0  0  0
  4  3  2  0  0  0  0
  4  5  1  0  0  0  0
  5  6  2  0  0  0  0
  6  1  1  0  0  0  0
  8  7  1  0  0  0  0
  9  4  1  0  0  0  0
 10  9  2  0  0  0  0
 11 12  1  0  0  0  0
 11  9  1  0  0  0  0
 13 12  2  0  0  0  0
 14 13  1  0  0  0  0
 15 14  2  0  0  0  0
 15 16  1  0  0  0  0
 16 11  2  0  0  0  0
 17  5  1  0  0  0  0
 17 18  1  0  0  0  0
M  END
>  <MODEL>
6

>  <REMARK>
 VINA RESULT:      -4.5     14.157     15.573
  Name = bgox31_3_ligand
  5 active torsions:
  status: ('A' for Active; 'I' for Inactive)
    1  A    between atoms: C_1  and  O_2
    2  A    between atoms: O_2  and  C_3
    3  A    between atoms: C_6  and  C_7
    4  A    between atoms: C_7  and  C_9
    5  A    between atoms: C_15  and  O_16
                            x       y       z     vdW  Elec       q    Type
                         _______ _______ _______ _____ _____    ______ ____

>  <TORSDO>
F 4

$$$$
bgox31_3_ligand
 OpenBabel10092621243D

 18 19  0  0  0  0  0  0  0  0999 V2000
   -3.8340    6.5920   -0.3860 C   0  0  0  0  0  0  0  0  0  0  0  0
   -3.8890    5.7260   -1.4460 C   0  0  0  0  0  3  0  0  0  0  0  0
   -4.1650    4.3790   -1.2370 C   0  0  0  0  0  3  0  0  0  0  0  0
   -4.4370    3.8850    0.0100 C   0  0  0  0  0  0  0  0  0  0  0  0
   -4.3980    4.7890    1.0860 C   0  0  0  0  0  0  0  0  0  0  0  0
   -4.0950    6.0940    0.9110 C   0  0  0  0  0  3  0  0  0  0  0  0
   -2.4520    8.3090   -1.4020 C   0  0  0  0  0  1  0  0  0  0  0  0
   -3.5560    7.9520   -0.6200 O   0  0  0  0  0  0  0  0  0  0  0  0
   -4.7100    2.4290    0.2490 C   0  0  0  0  0  0  0  0  0  0  0  0
   -4.1760    1.8640    1.1930 O   0  0  0  0  0  0  0  0  0  0  0  0
   -5.6110    1.6180   -0.6440 C   0  0  0  0  0  0  0  0  0  0  0  0
   -5.0620    0.8730   -1.6540 C   0  0  0  0  0  3  0  0  0  0  0  0
   -5.9030    0.1640   -2.4750 C   0  0  0  0  0  3  0  0  0  0  0  0
   -7.2300    0.1100   -2.1960 C   0  0  0  0  0  3  0  0  0  0  0  0
   -7.8070    0.8070   -1.1100 C   0  0  0  0  0  3  0  0  0  0  0  0
   -6.9470    1.5930   -0.3630 C   0  0  0  0  0  3  0  0  0  0  0  0
   -4.6040    4.2290    2.3440 O   0  0  0  0  0  0  0  0  0  0  0  0
   -5.4560    3.7660    2.5460 H   0  0  0  0  0  0  0  0  0  0  0  0
  1  6  1  0  0  0  0
  2  3  1  0  0  0  0
  2  1  2  0  0  0  0
  3  4  2  0  0  0  0
  4  9  1  0  0  0  0
  4  5  1  0  0  0  0
  5 17  1  0  0  0  0
  6  5  2  0  0  0  0
  7  8  1  0  0  0  0
  8  1  1  0  0  0  0
  9 10  2  0  0  0  0
 11 16  1  0  0  0  0
 11  9  1  0  0  0  0
 12 11  2  0  0  0  0
 13 14  2  0  0  0  0
 13 12  1  0  0  0  0
 14 15  1  0  0  0  0
 15 16  2  0  0  0  0
 17 18  1  0  0  0  0
M  END
>  <MODEL>
7

>  <REMARK>
 VINA RESULT:      -4.5      4.256      6.174
  Name = bgox31_3_ligand
  5 active torsions:
  status: ('A' for Active; 'I' for Inactive)
    1  A    between atoms: C_1  and  O_2
    2  A    between atoms: O_2  and  C_3
    3  A    between atoms: C_6  and  C_7
    4  A    between atoms: C_7  and  C_9
    5  A    between atoms: C_15  and  O_16
                            x       y       z     vdW  Elec       q    Type
                         _______ _______ _______ _____ _____    ______ ____

>  <TORSDO>
F 4

$$$$
bgox31_3_ligand
 OpenBabel10092621243D

 18 19  0  0  0  0  0  0  0  0999 V2000
   -4.9350    1.9960   -1.2520 C   0  0  0  0  0  0  0  0  0  0  0  0
   -5.0240    2.3150    0.0770 C   0  0  0  0  0  3  0  0  0  0  0  0
   -4.8040    3.6220    0.5010 C   0  0  0  0  0  3  0  0  0  0  0  0
   -4.5440    4.6320   -0.3850 C   0  0  0  0  0  0  0  0  0  0  0  0
   -4.4770    4.2940   -1.7490 C   0  0  0  0  0  0  0  0  0  0  0  0
   -4.6500    3.0240   -2.1790 C   0  0  0  0  0  3  0  0  0  0  0  0
   -5.9090    0.4170   -2.8150 C   0  0  0  0  0  1  0  0  0  0  0  0
   -5.1640    0.6690   -1.6580 O   0  0  0  0  0  0  0  0  0  0  0  0
   -4.2800    6.0390    0.0630 C   0  0  0  0  0  0  0  0  0  0  0  0
   -5.1490    6.8880   -0.0750 O   0  0  0  0  0  0  0  0  0  0  0  0
   -2.9670    6.4620    0.6670 C   0  0  0  0  0  0  0  0  0  0  0  0
   -2.7900    6.3670    2.0220 C   0  0  0  0  0  3  0  0  0  0  0  0
   -1.5960    6.7840    2.5550 C   0  0  0  0  0  3  0  0  0  0  0  0
   -0.5830    7.1550    1.7330 C   0  0  0  0  0  3  0  0  0  0  0  0
   -0.7180    7.1850    0.3260 C   0  0  0  0  0  3  0  0  0  0  0  0
   -1.9650    6.8540   -0.1740 C   0  0  0  0  0  3  0  0  0  0  0  0
   -4.1350    5.3360   -2.6060 O   0  0  0  0  0  0  0  0  0  0  0  0
   -4.6070    6.2040   -2.5440 H   0  0  0  0  0  0  0  0  0  0  0  0
  1  2  1  0  0  0  0
  2  3  2  0  0  0  0
  4  9  1  0  0  0  0
  4  3  1  0  0  0  0
  5  4  2  0  0  0  0
  6  5  1  0  0  0  0
  6  1  2  0  0  0  0
  7  8  1  0  0  0  0
  8  1  1  0  0  0  0
  9 11  1  0  0  0  0
 10  9  2  0  0  0  0
 11 12  1  0  0  0  0
 12 13  2  0  0  0  0
 14 13  1  0  0  0  0
 15 14  2  0  0  0  0
 16 15  1  0  0  0  0
 16 11  2  0  0  0  0
 17 18  1  0  0  0  0
 17  5  1  0  0  0  0
M  END
>  <MODEL>
8

>  <REMARK>
 VINA RESULT:      -4.5      4.014      8.127
  Name = bgox31_3_ligand
  5 active torsions:
  status: ('A' for Active; 'I' for Inactive)
    1  A    between atoms: C_1  and  O_2
    2  A    between atoms: O_2  and  C_3
    3  A    between atoms: C_6  and  C_7
    4  A    between atoms: C_7  and  C_9
    5  A    between atoms: C_15  and  O_16
                            x       y       z     vdW  Elec       q    Type
                         _______ _______ _______ _____ _____    ______ ____

>  <TORSDO>
F 4

$$$$
bgox31_3_ligand
 OpenBabel10092621243D

 18 19  0  0  0  0  0  0  0  0999 V2000
   -6.0290    1.8370    3.0120 C   0  0  0  0  0  0  0  0  0  0  0  0
   -4.7860    1.5380    2.5190 C   0  0  0  0  0  3  0  0  0  0  0  0
   -4.4590    1.8500    1.2040 C   0  0  0  0  0  3  0  0  0  0  0  0
   -5.3340    2.5060    0.3810 C   0  0  0  0  0  0  0  0  0  0  0  0
   -6.5990    2.8270    0.9060 C   0  0  0  0  0  0  0  0  0  0  0  0
   -6.9520    2.4990    2.1690 C   0  0  0  0  0  3  0  0  0  0  0  0
   -6.5130    0.1760    4.7120 C   0  0  0  0  0  1  0  0  0  0  0  0
   -6.3380    1.5150    4.3460 O   0  0  0  0  0  0  0  0  0  0  0  0
   -5.0010    2.8250   -1.0470 C   0  0  0  0  0  0  0  0  0  0  0  0
   -4.3100    3.8020   -1.3000 O   0  0  0  0  0  0  0  0  0  0  0  0
   -5.5000    1.9940   -2.1990 C   0  0  0  0  0  0  0  0  0  0  0  0
   -5.7130    2.5890   -3.4150 C   0  0  0  0  0  3  0  0  0  0  0  0
   -6.1960    1.8200   -4.4430 C   0  0  0  0  0  3  0  0  0  0  0  0
   -6.3280    0.4800   -4.2780 C   0  0  0  0  0  3  0  0  0  0  0  0
   -6.0390   -0.1680   -3.0560 C   0  0  0  0  0  3  0  0  0  0  0  0
   -5.6500    0.6500   -2.0090 C   0  0  0  0  0  3  0  0  0  0  0  0
   -7.4830    3.4220    0.0110 O   0  0  0  0  0  0  0  0  0  0  0  0
   -7.4660    3.1670   -0.9450 H   0  0  0  0  0  0  0  0  0  0  0  0
  1  8  1  0  0  0  0
  2  1  1  0  0  0  0
  3  2  2  0  0  0  0
  4  5  2  0  0  0  0
  4  3  1  0  0  0  0
  5  6  1  0  0  0  0
  6  1  2  0  0  0  0
  8  7  1  0  0  0  0
  9  4  1  0  0  0  0
 10  9  2  0  0  0  0
 11 16  1  0  0  0  0
 11  9  1  0  0  0  0
 12 11  2  0  0  0  0
 13 14  2  0  0  0  0
 13 12  1  0  0  0  0
 14 15  1  0  0  0  0
 15 16  2  0  0  0  0
 17  5  1  0  0  0  0
 18 17  1  0  0  0  0
M  END
>  <MODEL>
9

>  <REMARK>
 VINA RESULT:      -4.5      2.991      5.009
  Name = bgox31_3_ligand
  5 active torsions:
  status: ('A' for Active; 'I' for Inactive)
    1  A    between atoms: C_1  and  O_2
    2  A    between atoms: O_2  and  C_3
    3  A    between atoms: C_6  and  C_7
    4  A    between atoms: C_7  and  C_9
    5  A    between atoms: C_15  and  O_16
                            x       y       z     vdW  Elec       q    Type
                         _______ _______ _______ _____ _____    ______ ____

>  <TORSDO>
F 4

$$$$
