bg33_2_dockpose1
     RDKit          3D

 20 20  0  0  0  0  0  0  0  0999 V2000
   -2.8250   -2.4330    5.9310 C   0  0  0  0  0  0  0  0  0  0  0  0
   -1.3130   -2.7230    5.9150 C   0  0  0  0  0  0  0  0  0  0  0  0
   -0.6070   -1.7330    5.0240 C   0  0  0  0  0  0  0  0  0  0  0  0
    0.9020   -2.0090    4.9120 C   0  0  0  0  0  0  0  0  0  0  0  0
    1.1760   -3.1820    4.0160 C   0  0  1  0  0  0  0  0  0  0  0  0
    1.7620   -2.6650    2.7170 C   0  0  0  0  0  0  0  0  0  0  0  0
    1.4480   -3.6670    1.5380 C   0  0  0  0  0  0  0  0  0  0  0  0
    2.0170   -4.1700    4.6940 O   0  0  0  0  0  0  0  0  0  0  0  0
    1.6490   -5.5430    4.6030 C   0  0  0  0  0  0  0  0  0  0  0  0
    2.5000   -6.3880    4.7680 O   0  0  0  0  0  0  0  0  0  0  0  0
    0.2550   -5.9670    4.2430 C   0  0  0  0  0  0  0  0  0  0  0  0
   -0.7230   -6.2620    5.1570 C   0  0  0  0  0  0  0  0  0  0  0  0
   -2.1340   -6.5380    4.6970 C   0  0  0  0  0  0  0  0  0  0  0  0
   -2.3690   -7.0850    3.4520 C   0  0  0  0  0  0  0  0  0  0  0  0
   -3.6890   -7.2980    3.0650 C   0  0  0  0  0  0  0  0  0  0  0  0
   -4.7740   -6.9830    3.8730 C   0  0  0  0  0  0  0  0  0  0  0  0
   -6.0820   -7.1790    3.4390 O   0  0  0  0  0  0  0  0  0  0  0  0
   -6.2900   -8.3420    2.6270 C   0  0  0  0  0  0  0  0  0  0  0  0
   -4.5060   -6.4190    5.0960 C   0  0  0  0  0  0  0  0  0  0  0  0
   -3.1890   -6.1970    5.5210 C   0  0  0  0  0  0  0  0  0  0  0  0
  2  1  1  0
  3  2  1  0
  4  3  1  0
  5  4  1  1
  6  5  1  0
  7  6  1  0
  8  5  1  0
  9  8  1  0
 10  9  2  0
 11  9  1  0
 12 11  2  3
 13 12  1  0
 14 13  1  0
 15 14  2  0
 16 15  1  0
 17 16  1  0
 18 17  1  0
 19 16  2  0
 20 19  1  0
 20 13  2  0
M  END
