bg33_4_ligand
 OpenBabel10092621173D

 20 20  0  0  1  0  0  0  0  0999 V2000
   -4.3460   -4.5160    4.6590 C   0  0  0  0  0  0  0  0  0  0  0  0
   -5.2630   -4.2330    5.4880 O   0  0  0  0  0  0  0  0  0  0  0  0
   -4.2930   -3.9660    3.2950 C   0  0  0  0  0  3  0  0  0  0  0  0
   -3.0340   -3.9920    2.6070 C   0  0  0  0  0  3  0  0  0  0  0  0
   -2.8800   -3.3460    1.2400 C   0  0  0  0  0  0  0  0  0  0  0  0
   -1.7750   -2.6010    0.8890 C   0  0  0  0  0  3  0  0  0  0  0  0
   -1.6570   -2.0050   -0.4140 C   0  0  0  0  0  3  0  0  0  0  0  0
   -2.6480   -2.1680   -1.3980 C   0  0  0  0  0  0  0  0  0  0  0  0
   -3.7460   -2.9400   -1.0230 C   0  0  0  0  0  3  0  0  0  0  0  0
   -3.8540   -3.5220    0.2460 C   0  0  0  0  0  3  0  0  0  0  0  0
   -2.5650   -1.6700   -2.6830 O   0  0  0  0  0  0  0  0  0  0  0  0
   -1.9640   -0.3650   -2.8830 C   0  0  0  0  0  1  0  0  0  0  0  0
   -3.1890   -5.3110    5.0790 O   0  0  0  0  0  0  0  0  0  0  0  0
   -3.3840   -6.5990    5.5570 C   0  0  2  0  0  3  0  0  0  0  0  0
   -1.9190   -7.0410    5.8410 C   0  0  0  0  0  2  0  0  0  0  0  0
   -0.9370   -5.8250    5.8340 C   0  0  0  0  0  1  0  0  0  0  0  0
   -4.1400   -7.4590    4.4420 C   0  0  0  0  0  2  0  0  0  0  0  0
   -3.1840   -7.8530    3.3450 C   0  0  0  0  0  2  0  0  0  0  0  0
   -2.8040   -7.1670    0.9330 C   0  0  0  0  0  1  0  0  0  0  0  0
   -3.7880   -7.6690    1.9540 C   0  0  0  0  0  2  0  0  0  0  0  0
  1 13  1  0  0  0  0
  1  2  2  0  0  0  0
  3  1  1  0  0  0  0
  4  3  2  0  0  0  0
  5  4  1  0  0  0  0
  6  5  1  0  0  0  0
  7  6  2  0  0  0  0
  8  9  2  0  0  0  0
  8  7  1  0  0  0  0
  9 10  1  0  0  0  0
 10  5  2  0  0  0  0
 11  8  1  0  0  0  0
 12 11  1  0  0  0  0
 13 14  1  0  0  0  0
 14 17  1  6  0  0  0
 14 15  1  0  0  0  0
 16 15  1  0  0  0  0
 18 17  1  0  0  0  0
 19 20  1  0  0  0  0
 20 18  1  0  0  0  0
M  END
>  <MODEL>
1

>  <REMARK>
 VINA RESULT:      -4.5      0.000      0.000
  Name = bg33_4_ligand
  12 active torsions:
  status: ('A' for Active; 'I' for Inactive)
    1  A    between atoms: C_1  and  C_2
    2  A    between atoms: C_2  and  C_3
    3  A    between atoms: C_3  and  C_4
    4  A    between atoms: C_4  and  C_5
    5  A    between atoms: C_5  and  C_6
    6  A    between atoms: C_5  and  O_8
    7  A    between atoms: C_6  and  C_7
    8  A    between atoms: O_8  and  C_9
    9  A    between atoms: C_9  and  C_11
   10  A    between atoms: C_12  and  C_13
   11  A    between atoms: C_16  and  O_17
   12  A    between atoms: O_17  and  C_18
                            x       y       z     vdW  Elec       q    Type
                         _______ _______ _______ _____ _____    ______ ____

>  <TORSDO>
F 9

$$$$
bg33_4_ligand
 OpenBabel10092621173D

 20 20  0  0  1  0  0  0  0  0999 V2000
   -1.6260   -0.9530   -1.3570 C   0  0  0  0  0  0  0  0  0  0  0  0
   -1.4480    0.2070   -0.8750 O   0  0  0  0  0  0  0  0  0  0  0  0
   -1.7340   -2.1640   -0.5280 C   0  0  0  0  0  3  0  0  0  0  0  0
   -3.0120   -2.4800    0.0420 C   0  0  0  0  0  3  0  0  0  0  0  0
   -3.1730   -3.6540    0.9940 C   0  0  0  0  0  0  0  0  0  0  0  0
   -3.1510   -4.9640    0.5680 C   0  0  0  0  0  3  0  0  0  0  0  0
   -3.3020   -6.0540    1.4930 C   0  0  0  0  0  3  0  0  0  0  0  0
   -3.4580   -5.8400    2.8750 C   0  0  0  0  0  0  0  0  0  0  0  0
   -3.4590   -4.5070    3.2800 C   0  0  0  0  0  3  0  0  0  0  0  0
   -3.3070   -3.4490    2.3740 C   0  0  0  0  0  3  0  0  0  0  0  0
   -3.5490   -6.8450    3.8170 O   0  0  0  0  0  0  0  0  0  0  0  0
   -3.3490   -8.2160    3.3900 C   0  0  0  0  0  1  0  0  0  0  0  0
   -1.8830   -1.1270   -2.7890 O   0  0  0  0  0  0  0  0  0  0  0  0
   -3.1760   -0.9870   -3.2710 C   0  0  2  0  0  3  0  0  0  0  0  0
   -3.1870   -2.0400   -4.4170 C   0  0  0  0  0  2  0  0  0  0  0  0
   -4.1670   -3.2190   -4.1090 C   0  0  0  0  0  1  0  0  0  0  0  0
   -3.3940    0.5240   -3.7460 C   0  0  0  0  0  2  0  0  0  0  0  0
   -4.3080    1.2460   -2.7890 C   0  0  0  0  0  2  0  0  0  0  0  0
   -4.9490    0.6570   -0.4070 C   0  0  0  0  0  1  0  0  0  0  0  0
   -5.0520    0.2870   -1.8620 C   0  0  0  0  0  2  0  0  0  0  0  0
  1  2  2  0  0  0  0
  1  3  1  0  0  0  0
  3  4  2  0  0  0  0
  4  5  1  0  0  0  0
  5 10  1  0  0  0  0
  6  5  2  0  0  0  0
  6  7  1  0  0  0  0
  7  8  2  0  0  0  0
  8  9  1  0  0  0  0
  8 11  1  0  0  0  0
 10  9  2  0  0  0  0
 12 11  1  0  0  0  0
 13  1  1  0  0  0  0
 14 15  1  6  0  0  0
 14 13  1  0  0  0  0
 15 16  1  0  0  0  0
 17 14  1  0  0  0  0
 17 18  1  0  0  0  0
 18 20  1  0  0  0  0
 20 19  1  0  0  0  0
M  END
>  <MODEL>
2

>  <REMARK>
 VINA RESULT:      -4.4      2.025      7.952
  Name = bg33_4_ligand
  12 active torsions:
  status: ('A' for Active; 'I' for Inactive)
    1  A    between atoms: C_1  and  C_2
    2  A    between atoms: C_2  and  C_3
    3  A    between atoms: C_3  and  C_4
    4  A    between atoms: C_4  and  C_5
    5  A    between atoms: C_5  and  C_6
    6  A    between atoms: C_5  and  O_8
    7  A    between atoms: C_6  and  C_7
    8  A    between atoms: O_8  and  C_9
    9  A    between atoms: C_9  and  C_11
   10  A    between atoms: C_12  and  C_13
   11  A    between atoms: C_16  and  O_17
   12  A    between atoms: O_17  and  C_18
                            x       y       z     vdW  Elec       q    Type
                         _______ _______ _______ _____ _____    ______ ____

>  <TORSDO>
F 9

$$$$
bg33_4_ligand
 OpenBabel10092621173D

 20 20  0  0  1  0  0  0  0  0999 V2000
   -1.9250   -0.8390   -1.4870 C   0  0  0  0  0  0  0  0  0  0  0  0
   -1.6750   -1.0580   -2.7110 O   0  0  0  0  0  0  0  0  0  0  0  0
   -1.9100   -1.8910   -0.4580 C   0  0  0  0  0  3  0  0  0  0  0  0
   -3.1040   -2.6610   -0.2650 C   0  0  0  0  0  3  0  0  0  0  0  0
   -3.1950   -3.6900    0.8510 C   0  0  0  0  0  0  0  0  0  0  0  0
   -3.2570   -3.3410    2.1820 C   0  0  0  0  0  3  0  0  0  0  0  0
   -3.3460   -4.3370    3.2140 C   0  0  0  0  0  3  0  0  0  0  0  0
   -3.3960   -5.7110    2.9180 C   0  0  0  0  0  0  0  0  0  0  0  0
   -3.3500   -6.0360    1.5640 C   0  0  0  0  0  3  0  0  0  0  0  0
   -3.2680   -5.0600    0.5620 C   0  0  0  0  0  3  0  0  0  0  0  0
   -3.5400   -6.7100    3.8600 O   0  0  0  0  0  0  0  0  0  0  0  0
   -2.5400   -6.8280    4.9040 C   0  0  0  0  0  1  0  0  0  0  0  0
   -2.1030    0.5330   -1.0030 O   0  0  0  0  0  0  0  0  0  0  0  0
   -3.1180    1.3160   -1.5320 C   0  0  2  0  0  3  0  0  0  0  0  0
   -3.0150    2.5880   -0.6410 C   0  0  0  0  0  2  0  0  0  0  0  0
   -4.1970    3.5760   -0.9060 C   0  0  0  0  0  1  0  0  0  0  0  0
   -4.5020    0.5240   -1.4150 C   0  0  0  0  0  2  0  0  0  0  0  0
   -5.1110    0.3280   -2.7790 C   0  0  0  0  0  2  0  0  0  0  0  0
   -4.0460    0.1920   -5.0770 C   0  0  0  0  0  1  0  0  0  0  0  0
   -4.3250    1.0500   -3.8740 C   0  0  0  0  0  2  0  0  0  0  0  0
  1 13  1  0  0  0  0
  1  3  1  0  0  0  0
  2  1  2  0  0  0  0
  3  4  2  0  0  0  0
  4  5  1  0  0  0  0
  5  6  1  0  0  0  0
  6  7  2  0  0  0  0
  8  7  1  0  0  0  0
  8 11  1  0  0  0  0
  9  8  2  0  0  0  0
 10  5  2  0  0  0  0
 10  9  1  0  0  0  0
 11 12  1  0  0  0  0
 14 17  1  1  0  0  0
 14 13  1  0  0  0  0
 14 15  1  0  0  0  0
 16 15  1  0  0  0  0
 18 17  1  0  0  0  0
 19 20  1  0  0  0  0
 20 18  1  0  0  0  0
M  END
>  <MODEL>
3

>  <REMARK>
 VINA RESULT:      -4.3      2.343      8.077
  Name = bg33_4_ligand
  12 active torsions:
  status: ('A' for Active; 'I' for Inactive)
    1  A    between atoms: C_1  and  C_2
    2  A    between atoms: C_2  and  C_3
    3  A    between atoms: C_3  and  C_4
    4  A    between atoms: C_4  and  C_5
    5  A    between atoms: C_5  and  C_6
    6  A    between atoms: C_5  and  O_8
    7  A    between atoms: C_6  and  C_7
    8  A    between atoms: O_8  and  C_9
    9  A    between atoms: C_9  and  C_11
   10  A    between atoms: C_12  and  C_13
   11  A    between atoms: C_16  and  O_17
   12  A    between atoms: O_17  and  C_18
                            x       y       z     vdW  Elec       q    Type
                         _______ _______ _______ _____ _____    ______ ____

>  <TORSDO>
F 9

$$$$
bg33_4_ligand
 OpenBabel10092621173D

 20 20  0  0  1  0  0  0  0  0999 V2000
   -3.6720   -6.7800    1.9010 C   0  0  0  0  0  0  0  0  0  0  0  0
   -3.8130   -8.0160    1.6510 O   0  0  0  0  0  0  0  0  0  0  0  0
   -3.1770   -5.8070    0.9150 C   0  0  0  0  0  3  0  0  0  0  0  0
   -3.2930   -4.4120    1.2270 C   0  0  0  0  0  3  0  0  0  0  0  0
   -2.9010   -3.3510    0.2110 C   0  0  0  0  0  0  0  0  0  0  0  0
   -1.7830   -2.5590    0.3560 C   0  0  0  0  0  3  0  0  0  0  0  0
   -1.4370   -1.5670   -0.6240 C   0  0  0  0  0  3  0  0  0  0  0  0
   -2.2060   -1.3680   -1.7850 C   0  0  0  0  0  0  0  0  0  0  0  0
   -3.3210   -2.1930   -1.9140 C   0  0  0  0  0  3  0  0  0  0  0  0
   -3.6510   -3.1630   -0.9590 C   0  0  0  0  0  3  0  0  0  0  0  0
   -1.8930   -0.4720   -2.7880 O   0  0  0  0  0  0  0  0  0  0  0  0
   -2.9510    0.3540   -3.3350 C   0  0  0  0  0  1  0  0  0  0  0  0
   -4.1440   -6.2250    3.1730 O   0  0  0  0  0  0  0  0  0  0  0  0
   -3.4080   -6.4440    4.3280 C   0  0  2  0  0  3  0  0  0  0  0  0
   -4.4990   -7.0150    5.2790 C   0  0  0  0  0  2  0  0  0  0  0  0
   -4.4210   -8.5740    5.3770 C   0  0  0  0  0  1  0  0  0  0  0  0
   -2.7600   -5.0610    4.8020 C   0  0  0  0  0  2  0  0  0  0  0  0
   -2.0440   -5.2420    6.1160 C   0  0  0  0  0  2  0  0  0  0  0  0
   -1.0740   -7.3750    7.0850 C   0  0  0  0  0  1  0  0  0  0  0  0
   -0.9470   -6.3030    6.0370 C   0  0  0  0  0  2  0  0  0  0  0  0
  1 13  1  0  0  0  0
  2  1  2  0  0  0  0
  3  4  2  0  0  0  0
  3  1  1  0  0  0  0
  5  6  1  0  0  0  0
  5  4  1  0  0  0  0
  7  6  2  0  0  0  0
  8  7  1  0  0  0  0
  9  8  2  0  0  0  0
  9 10  1  0  0  0  0
 10  5  2  0  0  0  0
 11  8  1  0  0  0  0
 12 11  1  0  0  0  0
 13 14  1  0  0  0  0
 14 17  1  1  0  0  0
 14 15  1  0  0  0  0
 15 16  1  0  0  0  0
 17 18  1  0  0  0  0
 20 18  1  0  0  0  0
 20 19  1  0  0  0  0
M  END
>  <MODEL>
4

>  <REMARK>
 VINA RESULT:      -4.3      1.544      3.090
  Name = bg33_4_ligand
  12 active torsions:
  status: ('A' for Active; 'I' for Inactive)
    1  A    between atoms: C_1  and  C_2
    2  A    between atoms: C_2  and  C_3
    3  A    between atoms: C_3  and  C_4
    4  A    between atoms: C_4  and  C_5
    5  A    between atoms: C_5  and  C_6
    6  A    between atoms: C_5  and  O_8
    7  A    between atoms: C_6  and  C_7
    8  A    between atoms: O_8  and  C_9
    9  A    between atoms: C_9  and  C_11
   10  A    between atoms: C_12  and  C_13
   11  A    between atoms: C_16  and  O_17
   12  A    between atoms: O_17  and  C_18
                            x       y       z     vdW  Elec       q    Type
                         _______ _______ _______ _____ _____    ______ ____

>  <TORSDO>
F 9

$$$$
bg33_4_ligand
 OpenBabel10092621173D

 20 20  0  0  1  0  0  0  0  0999 V2000
   -2.5970   -1.9030   -1.1600 C   0  0  0  0  0  0  0  0  0  0  0  0
   -1.6570   -1.3960   -1.8440 O   0  0  0  0  0  0  0  0  0  0  0  0
   -2.3840   -2.9370   -0.1350 C   0  0  0  0  0  3  0  0  0  0  0  0
   -3.4270   -3.8990    0.0790 C   0  0  0  0  0  3  0  0  0  0  0  0
   -3.3210   -4.9280    1.1920 C   0  0  0  0  0  0  0  0  0  0  0  0
   -3.0210   -6.2520    0.9550 C   0  0  0  0  0  3  0  0  0  0  0  0
   -2.9240   -7.2010    2.0300 C   0  0  0  0  0  3  0  0  0  0  0  0
   -3.1090   -6.8250    3.3730 C   0  0  0  0  0  0  0  0  0  0  0  0
   -3.3940   -5.4780    3.5850 C   0  0  0  0  0  3  0  0  0  0  0  0
   -3.4820   -4.5560    2.5340 C   0  0  0  0  0  3  0  0  0  0  0  0
   -2.9720   -7.6780    4.4500 O   0  0  0  0  0  0  0  0  0  0  0  0
   -2.2610   -7.2050    5.6220 C   0  0  0  0  0  1  0  0  0  0  0  0
   -3.9570   -1.3640   -1.2590 O   0  0  0  0  0  0  0  0  0  0  0  0
   -4.3130   -0.2650   -0.4910 C   0  0  2  0  0  3  0  0  0  0  0  0
   -5.7070   -0.7070    0.0420 C   0  0  0  0  0  2  0  0  0  0  0  0
   -5.6160   -1.2760    1.4950 C   0  0  0  0  0  1  0  0  0  0  0  0
   -4.3300    1.0360   -1.4190 C   0  0  0  0  0  2  0  0  0  0  0  0
   -3.1590    1.9270   -1.0940 C   0  0  0  0  0  2  0  0  0  0  0  0
   -4.4240    3.2280    0.6780 C   0  0  0  0  0  1  0  0  0  0  0  0
   -3.5980    3.2960   -0.5770 C   0  0  0  0  0  2  0  0  0  0  0  0
  1  3  1  0  0  0  0
  2  1  2  0  0  0  0
  3  4  2  0  0  0  0
  4  5  1  0  0  0  0
  5 10  1  0  0  0  0
  6  5  2  0  0  0  0
  6  7  1  0  0  0  0
  7  8  2  0  0  0  0
  8  9  1  0  0  0  0
  8 11  1  0  0  0  0
 10  9  2  0  0  0  0
 11 12  1  0  0  0  0
 13  1  1  0  0  0  0
 13 14  1  0  0  0  0
 14 17  1  6  0  0  0
 14 15  1  0  0  0  0
 15 16  1  0  0  0  0
 17 18  1  0  0  0  0
 18 20  1  0  0  0  0
 20 19  1  0  0  0  0
M  END
>  <MODEL>
5

>  <REMARK>
 VINA RESULT:      -4.3      2.475      7.816
  Name = bg33_4_ligand
  12 active torsions:
  status: ('A' for Active; 'I' for Inactive)
    1  A    between atoms: C_1  and  C_2
    2  A    between atoms: C_2  and  C_3
    3  A    between atoms: C_3  and  C_4
    4  A    between atoms: C_4  and  C_5
    5  A    between atoms: C_5  and  C_6
    6  A    between atoms: C_5  and  O_8
    7  A    between atoms: C_6  and  C_7
    8  A    between atoms: O_8  and  C_9
    9  A    between atoms: C_9  and  C_11
   10  A    between atoms: C_12  and  C_13
   11  A    between atoms: C_16  and  O_17
   12  A    between atoms: O_17  and  C_18
                            x       y       z     vdW  Elec       q    Type
                         _______ _______ _______ _____ _____    ______ ____

>  <TORSDO>
F 9

$$$$
bg33_4_ligand
 OpenBabel10092621173D

 20 20  0  0  1  0  0  0  0  0999 V2000
   -1.6450   -0.8510   -1.3650 C   0  0  0  0  0  0  0  0  0  0  0  0
   -1.5860    0.3360   -0.9180 O   0  0  0  0  0  0  0  0  0  0  0  0
   -1.7350   -2.0360   -0.4980 C   0  0  0  0  0  3  0  0  0  0  0  0
   -3.0180   -2.3810    0.0420 C   0  0  0  0  0  3  0  0  0  0  0  0
   -3.1660   -3.5280    1.0290 C   0  0  0  0  0  0  0  0  0  0  0  0
   -3.2790   -3.3290    2.3880 C   0  0  0  0  0  3  0  0  0  0  0  0
   -3.4210   -4.4340    3.2960 C   0  0  0  0  0  3  0  0  0  0  0  0
   -3.4720   -5.7650    2.8450 C   0  0  0  0  0  0  0  0  0  0  0  0
   -3.3730   -5.9360    1.4660 C   0  0  0  0  0  3  0  0  0  0  0  0
   -3.2400   -4.8560    0.5850 C   0  0  0  0  0  3  0  0  0  0  0  0
   -3.6650   -6.8620    3.6620 O   0  0  0  0  0  0  0  0  0  0  0  0
   -2.6840   -7.1380    4.6950 C   0  0  0  0  0  1  0  0  0  0  0  0
   -1.7760   -1.0930   -2.8040 O   0  0  0  0  0  0  0  0  0  0  0  0
   -3.0220   -0.9840   -3.4040 C   0  0  2  0  0  3  0  0  0  0  0  0
   -2.8670   -1.9610   -4.6040 C   0  0  0  0  0  2  0  0  0  0  0  0
   -3.9070   -3.1270   -4.5380 C   0  0  0  0  0  1  0  0  0  0  0  0
   -3.2730    0.5430   -3.8080 C   0  0  0  0  0  2  0  0  0  0  0  0
   -4.4270    0.6460   -4.7710 C   0  0  0  0  0  2  0  0  0  0  0  0
   -5.0060    2.3480   -6.5600 C   0  0  0  0  0  1  0  0  0  0  0  0
   -4.0260    1.3090   -6.0880 C   0  0  0  0  0  2  0  0  0  0  0  0
  1  2  2  0  0  0  0
  1  3  1  0  0  0  0
  3  4  2  0  0  0  0
  4  5  1  0  0  0  0
  5  6  1  0  0  0  0
  6  7  2  0  0  0  0
  8  7  1  0  0  0  0
  8 11  1  0  0  0  0
  9  8  2  0  0  0  0
 10  5  2  0  0  0  0
 10  9  1  0  0  0  0
 11 12  1  0  0  0  0
 13  1  1  0  0  0  0
 14 15  1  6  0  0  0
 14 13  1  0  0  0  0
 15 16  1  0  0  0  0
 17 14  1  0  0  0  0
 18 17  1  0  0  0  0
 19 20  1  0  0  0  0
 20 18  1  0  0  0  0
M  END
>  <MODEL>
6

>  <REMARK>
 VINA RESULT:      -4.3      2.353      8.481
  Name = bg33_4_ligand
  12 active torsions:
  status: ('A' for Active; 'I' for Inactive)
    1  A    between atoms: C_1  and  C_2
    2  A    between atoms: C_2  and  C_3
    3  A    between atoms: C_3  and  C_4
    4  A    between atoms: C_4  and  C_5
    5  A    between atoms: C_5  and  C_6
    6  A    between atoms: C_5  and  O_8
    7  A    between atoms: C_6  and  C_7
    8  A    between atoms: O_8  and  C_9
    9  A    between atoms: C_9  and  C_11
   10  A    between atoms: C_12  and  C_13
   11  A    between atoms: C_16  and  O_17
   12  A    between atoms: O_17  and  C_18
                            x       y       z     vdW  Elec       q    Type
                         _______ _______ _______ _____ _____    ______ ____

>  <TORSDO>
F 9

$$$$
bg33_4_ligand
 OpenBabel10092621173D

 20 20  0  0  1  0  0  0  0  0999 V2000
   -4.4940   -5.0210    3.3800 C   0  0  0  0  0  0  0  0  0  0  0  0
   -4.7050   -4.7280    4.5960 O   0  0  0  0  0  0  0  0  0  0  0  0
   -4.2360   -4.0130    2.3390 C   0  0  0  0  0  3  0  0  0  0  0  0
   -3.2880   -4.3330    1.3110 C   0  0  0  0  0  3  0  0  0  0  0  0
   -2.8930   -3.3010    0.2670 C   0  0  0  0  0  0  0  0  0  0  0  0
   -1.7720   -2.5090    0.3910 C   0  0  0  0  0  3  0  0  0  0  0  0
   -1.4230   -1.5450   -0.6150 C   0  0  0  0  0  3  0  0  0  0  0  0
   -2.1910   -1.3750   -1.7810 C   0  0  0  0  0  0  0  0  0  0  0  0
   -3.3090   -2.2000   -1.8890 C   0  0  0  0  0  3  0  0  0  0  0  0
   -3.6420   -3.1430   -0.9070 C   0  0  0  0  0  3  0  0  0  0  0  0
   -1.8750   -0.5080   -2.8080 O   0  0  0  0  0  0  0  0  0  0  0  0
   -2.9330    0.2980   -3.3860 C   0  0  0  0  0  1  0  0  0  0  0  0
   -4.3510   -6.4210    2.9710 O   0  0  0  0  0  0  0  0  0  0  0  0
   -3.2680   -7.1570    3.4270 C   0  0  2  0  0  3  0  0  0  0  0  0
   -2.9910   -8.0790    2.2040 C   0  0  0  0  0  2  0  0  0  0  0  0
   -4.0620   -7.8850    1.0810 C   0  0  0  0  0  1  0  0  0  0  0  0
   -3.6870   -7.9250    4.7650 C   0  0  0  0  0  2  0  0  0  0  0  0
   -2.8570   -7.4430    5.9270 C   0  0  0  0  0  2  0  0  0  0  0  0
   -0.8530   -6.0470    6.6100 C   0  0  0  0  0  1  0  0  0  0  0  0
   -1.6210   -6.6670    5.4750 C   0  0  0  0  0  2  0  0  0  0  0  0
  1  2  2  0  0  0  0
  3  1  1  0  0  0  0
  4  3  2  0  0  0  0
  5  6  1  0  0  0  0
  5  4  1  0  0  0  0
  7  6  2  0  0  0  0
  8  7  1  0  0  0  0
  9  8  2  0  0  0  0
  9 10  1  0  0  0  0
 10  5  2  0  0  0  0
 11  8  1  0  0  0  0
 12 11  1  0  0  0  0
 13  1  1  0  0  0  0
 13 14  1  0  0  0  0
 14 15  1  6  0  0  0
 14 17  1  0  0  0  0
 16 15  1  0  0  0  0
 17 18  1  0  0  0  0
 20 18  1  0  0  0  0
 20 19  1  0  0  0  0
M  END
>  <MODEL>
7

>  <REMARK>
 VINA RESULT:      -4.2      1.076      2.663
  Name = bg33_4_ligand
  12 active torsions:
  status: ('A' for Active; 'I' for Inactive)
    1  A    between atoms: C_1  and  C_2
    2  A    between atoms: C_2  and  C_3
    3  A    between atoms: C_3  and  C_4
    4  A    between atoms: C_4  and  C_5
    5  A    between atoms: C_5  and  C_6
    6  A    between atoms: C_5  and  O_8
    7  A    between atoms: C_6  and  C_7
    8  A    between atoms: O_8  and  C_9
    9  A    between atoms: C_9  and  C_11
   10  A    between atoms: C_12  and  C_13
   11  A    between atoms: C_16  and  O_17
   12  A    between atoms: O_17  and  C_18
                            x       y       z     vdW  Elec       q    Type
                         _______ _______ _______ _____ _____    ______ ____

>  <TORSDO>
F 9

$$$$
bg33_4_ligand
 OpenBabel10092621173D

 20 20  0  0  1  0  0  0  0  0999 V2000
   -3.1580   -6.0760    1.2830 C   0  0  0  0  0  0  0  0  0  0  0  0
   -2.5170   -7.0010    0.6970 O   0  0  0  0  0  0  0  0  0  0  0  0
   -3.4880   -4.7930    0.6440 C   0  0  0  0  0  3  0  0  0  0  0  0
   -2.4110   -3.8970    0.3330 C   0  0  0  0  0  3  0  0  0  0  0  0
   -2.6870   -2.5120   -0.2290 C   0  0  0  0  0  0  0  0  0  0  0  0
   -3.9430   -1.9450   -0.2270 C   0  0  0  0  0  3  0  0  0  0  0  0
   -4.1720   -0.6310   -0.7620 C   0  0  0  0  0  3  0  0  0  0  0  0
   -3.1270    0.1470   -1.2930 C   0  0  0  0  0  0  0  0  0  0  0  0
   -1.8660   -0.4420   -1.2670 C   0  0  0  0  0  3  0  0  0  0  0  0
   -1.6470   -1.7220   -0.7390 C   0  0  0  0  0  3  0  0  0  0  0  0
   -3.2750    1.4360   -1.7670 O   0  0  0  0  0  0  0  0  0  0  0  0
   -3.2560    2.5310   -0.8160 C   0  0  0  0  0  1  0  0  0  0  0  0
   -3.7410   -6.3050    2.6080 O   0  0  0  0  0  0  0  0  0  0  0  0
   -3.7510   -5.2750    3.5360 C   0  0  2  0  0  3  0  0  0  0  0  0
   -2.7800   -5.8320    4.6170 C   0  0  0  0  0  2  0  0  0  0  0  0
   -2.8810   -7.3870    4.7390 C   0  0  0  0  0  1  0  0  0  0  0  0
   -5.2510   -5.0390    4.0370 C   0  0  0  0  0  2  0  0  0  0  0  0
   -5.4760   -3.5820    4.3500 C   0  0  0  0  0  2  0  0  0  0  0  0
   -5.5190   -1.3200    3.2060 C   0  0  0  0  0  1  0  0  0  0  0  0
   -4.8460   -2.6610    3.3070 C   0  0  0  0  0  2  0  0  0  0  0  0
  1 13  1  0  0  0  0
  2  1  2  0  0  0  0
  3  1  1  0  0  0  0
  4  3  2  0  0  0  0
  5  6  1  0  0  0  0
  5  4  1  0  0  0  0
  7  6  2  0  0  0  0
  8  9  2  0  0  0  0
  8  7  1  0  0  0  0
  9 10  1  0  0  0  0
 10  5  2  0  0  0  0
 11  8  1  0  0  0  0
 11 12  1  0  0  0  0
 13 14  1  0  0  0  0
 14 17  1  1  0  0  0
 14 15  1  0  0  0  0
 15 16  1  0  0  0  0
 17 18  1  0  0  0  0
 19 20  1  0  0  0  0
 20 18  1  0  0  0  0
M  END
>  <MODEL>
8

>  <REMARK>
 VINA RESULT:      -4.2      2.176      3.645
  Name = bg33_4_ligand
  12 active torsions:
  status: ('A' for Active; 'I' for Inactive)
    1  A    between atoms: C_1  and  C_2
    2  A    between atoms: C_2  and  C_3
    3  A    between atoms: C_3  and  C_4
    4  A    between atoms: C_4  and  C_5
    5  A    between atoms: C_5  and  C_6
    6  A    between atoms: C_5  and  O_8
    7  A    between atoms: C_6  and  C_7
    8  A    between atoms: O_8  and  C_9
    9  A    between atoms: C_9  and  C_11
   10  A    between atoms: C_12  and  C_13
   11  A    between atoms: C_16  and  O_17
   12  A    between atoms: O_17  and  C_18
                            x       y       z     vdW  Elec       q    Type
                         _______ _______ _______ _____ _____    ______ ____

>  <TORSDO>
F 9

$$$$
bg33_4_ligand
 OpenBabel10092621173D

 20 20  0  0  1  0  0  0  0  0999 V2000
   -2.4040   -1.6810   -1.1410 C   0  0  0  0  0  0  0  0  0  0  0  0
   -1.4230   -1.1650   -1.7570 O   0  0  0  0  0  0  0  0  0  0  0  0
   -2.2530   -2.7070   -0.0970 C   0  0  0  0  0  3  0  0  0  0  0  0
   -3.2750   -3.7080    0.0170 C   0  0  0  0  0  3  0  0  0  0  0  0
   -3.2390   -4.7330    1.1390 C   0  0  0  0  0  0  0  0  0  0  0  0
   -3.4500   -4.3990    2.4590 C   0  0  0  0  0  3  0  0  0  0  0  0
   -3.4140   -5.3920    3.4970 C   0  0  0  0  0  3  0  0  0  0  0  0
   -3.1830   -6.7510    3.2170 C   0  0  0  0  0  0  0  0  0  0  0  0
   -2.9900   -7.0640    1.8740 C   0  0  0  0  0  3  0  0  0  0  0  0
   -3.0320   -6.0920    0.8650 C   0  0  0  0  0  3  0  0  0  0  0  0
   -3.1940   -7.7580    4.1630 O   0  0  0  0  0  0  0  0  0  0  0  0
   -2.8100   -7.4350    5.5240 C   0  0  0  0  0  1  0  0  0  0  0  0
   -3.7590   -1.1610   -1.3420 O   0  0  0  0  0  0  0  0  0  0  0  0
   -4.1720   -0.0410   -0.6350 C   0  0  2  0  0  3  0  0  0  0  0  0
   -5.6260   -0.4440   -0.2520 C   0  0  0  0  0  2  0  0  0  0  0  0
   -5.6940   -1.0680    1.1800 C   0  0  0  0  0  1  0  0  0  0  0  0
   -4.0580    1.2430   -1.5800 C   0  0  0  0  0  2  0  0  0  0  0  0
   -3.1800    2.2880   -0.9400 C   0  0  0  0  0  2  0  0  0  0  0  0
   -4.6210    4.3750   -0.9730 C   0  0  0  0  0  1  0  0  0  0  0  0
   -3.9840    3.3040   -0.1300 C   0  0  0  0  0  2  0  0  0  0  0  0
  1  3  1  0  0  0  0
  2  1  2  0  0  0  0
  3  4  2  0  0  0  0
  4  5  1  0  0  0  0
  5  6  1  0  0  0  0
  6  7  2  0  0  0  0
  8  7  1  0  0  0  0
  8 11  1  0  0  0  0
  9  8  2  0  0  0  0
 10  5  2  0  0  0  0
 10  9  1  0  0  0  0
 11 12  1  0  0  0  0
 13  1  1  0  0  0  0
 13 14  1  0  0  0  0
 14 17  1  6  0  0  0
 14 15  1  0  0  0  0
 15 16  1  0  0  0  0
 17 18  1  0  0  0  0
 18 20  1  0  0  0  0
 19 20  1  0  0  0  0
M  END
>  <MODEL>
9

>  <REMARK>
 VINA RESULT:      -4.2      2.564      7.965
  Name = bg33_4_ligand
  12 active torsions:
  status: ('A' for Active; 'I' for Inactive)
    1  A    between atoms: C_1  and  C_2
    2  A    between atoms: C_2  and  C_3
    3  A    between atoms: C_3  and  C_4
    4  A    between atoms: C_4  and  C_5
    5  A    between atoms: C_5  and  C_6
    6  A    between atoms: C_5  and  O_8
    7  A    between atoms: C_6  and  C_7
    8  A    between atoms: O_8  and  C_9
    9  A    between atoms: C_9  and  C_11
   10  A    between atoms: C_12  and  C_13
   11  A    between atoms: C_16  and  O_17
   12  A    between atoms: O_17  and  C_18
                            x       y       z     vdW  Elec       q    Type
                         _______ _______ _______ _____ _____    ______ ____

>  <TORSDO>
F 9

$$$$
