bg33_2_pose0_reference


 20 20  0  0  0  0  0  0  0  0999 V2000
    6.0093   -2.5871   -0.5140 C   0  0  0  0  0  0  0  0  0  0  0  0
    7.0376   -3.2169   -0.4028 O   0  0  0  0  0  0  0  0  0  0  0  0
    4.9374   -2.7450    0.5236 C   0  0  0  0  0  0  0  0  0  0  0  0
    4.4649   -1.7251    1.3091 C   0  0  0  0  0  0  0  0  0  0  0  0
    3.2837   -1.9536    2.2209 C   0  0  0  0  0  0  0  0  0  0  0  0
    2.2685   -2.8113    1.8480 C   0  0  0  0  0  0  0  0  0  0  0  0
    1.1902   -2.9696    2.7144 C   0  0  0  0  0  0  0  0  0  0  0  0
    1.0913   -2.3042    3.9289 C   0  0  0  0  0  0  0  0  0  0  0  0
    2.1077   -1.4408    4.2584 C   0  0  0  0  0  0  0  0  0  0  0  0
    3.2121   -1.2626    3.4146 C   0  0  0  0  0  0  0  0  0  0  0  0
   -0.0176   -2.4618    4.7539 O   0  0  0  0  0  0  0  0  0  0  0  0
   -0.1523   -3.7545    5.3592 C   0  0  0  0  0  0  0  0  0  0  0  0
    5.8288   -1.7646   -1.6631 O   0  0  0  0  0  0  0  0  0  0  0  0
    6.9013   -1.7224   -2.6579 C   0  0  0  0  0  0  0  0  0  0  0  0
    7.8353   -0.5387   -2.5040 C   0  0  0  0  0  0  0  0  0  0  0  0
    8.7582   -0.4016   -3.7780 C   0  0  0  0  0  0  0  0  0  0  0  0
    6.3382   -1.7025   -4.0501 C   0  0  0  0  0  0  0  0  0  0  0  0
    4.8356   -2.0309   -4.0483 C   0  0  0  0  0  0  0  0  0  0  0  0
    2.6134   -1.6013   -5.0997 C   0  0  0  0  0  0  0  0  0  0  0  0
    4.1389   -1.5688   -5.3022 C   0  0  0  0  0  0  0  0  0  0  0  0
 20 19  1  0
 18 20  1  0
 17 18  1  0
 14 17  1  0
 15 14  1  0
 16 15  1  0
 13 14  1  0
  1 13  1  0
  2  1  2  0
  3  1  1  0
  4  3  2  0
  5  4  1  0
  6  5  1  0
  7  6  2  0
  8  7  1  0
 11  8  1  0
 12 11  1  0
  9  8  2  0
 10  9  1  0
 10  5  2  0
M  END
> <structure>
bg33_2

> <pose>
0

> <is_reference>
1

> <rmsd_to_reference_A>
0.000

> <vina_score>


> <minimizedAffinity>
-3.27993

> <minimizedRMSD>
1.08367

> <CNNscore>
0.9104695320

> <CNNaffinity>
5.4694080353

> <CNN_VS>
4.9797291756

> <CNNaffinity_variance>
0.8359858394

$$$$
bg33_2_pose1


 20 20  0  0  0  0  0  0  0  0999 V2000
    1.4342   -5.3653    4.7808 C   0  0  0  0  0  0  0  0  0  0  0  0
    2.2265   -6.2099    5.1333 O   0  0  0  0  0  0  0  0  0  0  0  0
    0.0561   -5.7837    4.3583 C   0  0  0  0  0  0  0  0  0  0  0  0
   -0.8764   -6.3329    5.1996 C   0  0  0  0  0  0  0  0  0  0  0  0
   -2.2826   -6.5862    4.7129 C   0  0  0  0  0  0  0  0  0  0  0  0
   -2.5075   -7.0310    3.4260 C   0  0  0  0  0  0  0  0  0  0  0  0
   -3.8238   -7.2265    3.0177 C   0  0  0  0  0  0  0  0  0  0  0  0
   -4.9148   -6.9921    3.8447 C   0  0  0  0  0  0  0  0  0  0  0  0
   -4.6570   -6.5281    5.1112 C   0  0  0  0  0  0  0  0  0  0  0  0
   -3.3440   -6.3268    5.5582 C   0  0  0  0  0  0  0  0  0  0  0  0
   -6.2191   -7.1666    3.3909 O   0  0  0  0  0  0  0  0  0  0  0  0
   -6.5115   -8.4622    2.8514 C   0  0  0  0  0  0  0  0  0  0  0  0
    1.8594   -4.0073    4.7185 O   0  0  0  0  0  0  0  0  0  0  0  0
    1.0309   -3.0564    3.9752 C   0  0  0  0  0  0  0  0  0  0  0  0
    1.6495   -2.5912    2.6717 C   0  0  0  0  0  0  0  0  0  0  0  0
    1.3638   -3.6390    1.5258 C   0  0  0  0  0  0  0  0  0  0  0  0
    0.7237   -1.8480    4.8115 C   0  0  0  0  0  0  0  0  0  0  0  0
   -0.7915   -1.6831    5.0182 C   0  0  0  0  0  0  0  0  0  0  0  0
   -2.9075   -2.6540    5.9192 C   0  0  0  0  0  0  0  0  0  0  0  0
   -1.3700   -2.7342    5.9308 C   0  0  0  0  0  0  0  0  0  0  0  0
 20 19  1  0
 18 20  1  0
 17 18  1  0
 14 17  1  0
 15 14  1  0
 16 15  1  0
 13 14  1  0
  1 13  1  0
  2  1  2  0
  3  1  1  0
  4  3  2  0
  5  4  1  0
  6  5  1  0
  7  6  2  0
  8  7  1  0
 11  8  1  0
 12 11  1  0
  9  8  2  0
 10  9  1  0
 10  5  2  0
M  END
> <structure>
bg33_2

> <pose>
1

> <is_reference>
0

> <rmsd_to_reference_A>
8.939

> <vina_score>
-2.9

> <minimizedAffinity>
-2.97944

> <minimizedRMSD>
0.22962

> <CNNscore>
0.2883183956

> <CNNaffinity>
4.2221474648

> <CNN_VS>
1.2173228264

> <CNNaffinity_variance>
0.1629758328

$$$$
bg33_2_pose2


 20 20  0  0  0  0  0  0  0  0999 V2000
    3.0918   -1.0059    5.8817 C   0  0  0  0  0  0  0  0  0  0  0  0
    2.7035   -0.8262    7.0154 O   0  0  0  0  0  0  0  0  0  0  0  0
    3.9976    0.0084    5.2492 C   0  0  0  0  0  0  0  0  0  0  0  0
    3.5758    1.0023    4.4031 C   0  0  0  0  0  0  0  0  0  0  0  0
    4.5428    2.0619    3.9345 C   0  0  0  0  0  0  0  0  0  0  0  0
    4.0779    3.2329    3.3711 C   0  0  0  0  0  0  0  0  0  0  0  0
    5.0112    4.1689    2.9336 C   0  0  0  0  0  0  0  0  0  0  0  0
    6.3825    3.9746    3.0371 C   0  0  0  0  0  0  0  0  0  0  0  0
    6.8114    2.7886    3.5815 C   0  0  0  0  0  0  0  0  0  0  0  0
    5.8997    1.8281    4.0398 C   0  0  0  0  0  0  0  0  0  0  0  0
    7.2863    4.9176    2.5583 O   0  0  0  0  0  0  0  0  0  0  0  0
    6.8415    6.2798    2.6206 C   0  0  0  0  0  0  0  0  0  0  0  0
    2.6217   -2.1448    5.1668 O   0  0  0  0  0  0  0  0  0  0  0  0
    1.4862   -1.9703    4.2595 C   0  0  0  0  0  0  0  0  0  0  0  0
    0.1783   -2.5109    4.8017 C   0  0  0  0  0  0  0  0  0  0  0  0
   -0.7468   -1.3240    5.2807 C   0  0  0  0  0  0  0  0  0  0  0  0
    1.7554   -2.6254    2.9360 C   0  0  0  0  0  0  0  0  0  0  0  0
    2.7704   -1.8163    2.1101 C   0  0  0  0  0  0  0  0  0  0  0  0
    5.2338   -1.4276    2.0344 C   0  0  0  0  0  0  0  0  0  0  0  0
    4.1179   -2.4870    2.0271 C   0  0  0  0  0  0  0  0  0  0  0  0
 20 19  1  0
 18 20  1  0
 17 18  1  0
 14 17  1  0
 15 14  1  0
 16 15  1  0
 13 14  1  0
  1 13  1  0
  2  1  2  0
  3  1  1  0
  4  3  2  0
  5  4  1  0
  6  5  1  0
  7  6  2  0
  8  7  1  0
 11  8  1  0
 12 11  1  0
  9  8  2  0
 10  9  1  0
 10  5  2  0
M  END
> <structure>
bg33_2

> <pose>
2

> <is_reference>
0

> <rmsd_to_reference_A>
8.388

> <vina_score>
-2.9

> <minimizedAffinity>
-2.91943

> <minimizedRMSD>
0.23060

> <CNNscore>
0.2607241869

> <CNNaffinity>
4.0828342438

> <CNN_VS>
1.0644936562

> <CNNaffinity_variance>
0.3517941236

$$$$
bg33_2_pose3


 20 20  0  0  0  0  0  0  0  0999 V2000
    8.4154   -2.0783    0.3663 C   0  0  0  0  0  0  0  0  0  0  0  0
    9.3208   -2.3197    1.1322 O   0  0  0  0  0  0  0  0  0  0  0  0
    7.0116   -2.0056    0.8900 C   0  0  0  0  0  0  0  0  0  0  0  0
    5.9335   -2.6153    0.3017 C   0  0  0  0  0  0  0  0  0  0  0  0
    4.5879   -2.6045    0.9852 C   0  0  0  0  0  0  0  0  0  0  0  0
    4.2132   -1.5358    1.7736 C   0  0  0  0  0  0  0  0  0  0  0  0
    2.9714   -1.5853    2.4006 C   0  0  0  0  0  0  0  0  0  0  0  0
    2.0996   -2.6578    2.2708 C   0  0  0  0  0  0  0  0  0  0  0  0
    2.5142   -3.7153    1.4987 C   0  0  0  0  0  0  0  0  0  0  0  0
    3.7544   -3.6965    0.8453 C   0  0  0  0  0  0  0  0  0  0  0  0
    0.8805   -2.6876    2.9402 O   0  0  0  0  0  0  0  0  0  0  0  0
    0.9284   -2.2943    4.3182 C   0  0  0  0  0  0  0  0  0  0  0  0
    8.7088   -1.9336   -1.0199 O   0  0  0  0  0  0  0  0  0  0  0  0
    8.8804   -0.5811   -1.5524 C   0  0  0  0  0  0  0  0  0  0  0  0
    8.1287   -0.3298   -2.8451 C   0  0  0  0  0  0  0  0  0  0  0  0
    6.8325   -1.2301   -2.9066 C   0  0  0  0  0  0  0  0  0  0  0  0
   10.3332   -0.2778   -1.7839 C   0  0  0  0  0  0  0  0  0  0  0  0
   10.9518    0.4442   -0.5752 C   0  0  0  0  0  0  0  0  0  0  0  0
   10.4656    2.6201    0.5449 C   0  0  0  0  0  0  0  0  0  0  0  0
    9.9318    1.2119    0.2254 C   0  0  0  0  0  0  0  0  0  0  0  0
 20 19  1  0
 18 20  1  0
 17 18  1  0
 14 17  1  0
 15 14  1  0
 16 15  1  0
 13 14  1  0
  1 13  1  0
  2  1  2  0
  3  1  1  0
  4  3  2  0
  5  4  1  0
  6  5  1  0
  7  6  2  0
  8  7  1  0
 11  8  1  0
 12 11  1  0
  9  8  2  0
 10  9  1  0
 10  5  2  0
M  END
> <structure>
bg33_2

> <pose>
3

> <is_reference>
0

> <rmsd_to_reference_A>
4.445

> <vina_score>
-2.9

> <minimizedAffinity>
-3.19347

> <minimizedRMSD>
0.19186

> <CNNscore>
0.4331245124

> <CNNaffinity>
4.1991081238

> <CNN_VS>
1.8187366724

> <CNNaffinity_variance>
0.3333106041

$$$$
bg33_2_pose4


 20 20  0  0  0  0  0  0  0  0999 V2000
    1.7945   -2.6862    2.9331 C   0  0  0  0  0  0  0  0  0  0  0  0
    1.7022   -3.1053    1.8003 O   0  0  0  0  0  0  0  0  0  0  0  0
    0.5539   -2.5424    3.7646 C   0  0  0  0  0  0  0  0  0  0  0  0
    0.4462   -1.7238    4.8587 C   0  0  0  0  0  0  0  0  0  0  0  0
   -0.8868   -1.5384    5.5406 C   0  0  0  0  0  0  0  0  0  0  0  0
   -1.6908   -2.6271    5.8117 C   0  0  0  0  0  0  0  0  0  0  0  0
   -2.9228   -2.4006    6.4203 C   0  0  0  0  0  0  0  0  0  0  0  0
   -3.3744   -1.1330    6.7639 C   0  0  0  0  0  0  0  0  0  0  0  0
   -2.5597   -0.0703    6.4591 C   0  0  0  0  0  0  0  0  0  0  0  0
   -1.3111   -0.2618    5.8536 C   0  0  0  0  0  0  0  0  0  0  0  0
   -4.6251   -0.9411    7.3415 O   0  0  0  0  0  0  0  0  0  0  0  0
   -5.4318   -2.1204    7.4637 C   0  0  0  0  0  0  0  0  0  0  0  0
    3.0732   -2.2841    3.4153 O   0  0  0  0  0  0  0  0  0  0  0  0
    3.6329   -1.0251    2.9217 C   0  0  0  0  0  0  0  0  0  0  0  0
    5.0121   -1.1644    2.3084 C   0  0  0  0  0  0  0  0  0  0  0  0
    4.9172   -1.8871    0.9079 C   0  0  0  0  0  0  0  0  0  0  0  0
    3.7052   -0.0061    4.0222 C   0  0  0  0  0  0  0  0  0  0  0  0
    4.6370    1.1582    3.6431 C   0  0  0  0  0  0  0  0  0  0  0  0
    4.8646    3.5849    3.1107 C   0  0  0  0  0  0  0  0  0  0  0  0
    3.9420    2.4947    3.6831 C   0  0  0  0  0  0  0  0  0  0  0  0
 20 19  1  0
 18 20  1  0
 17 18  1  0
 14 17  1  0
 15 14  1  0
 16 15  1  0
 13 14  1  0
  1 13  1  0
  2  1  2  0
  3  1  1  0
  4  3  2  0
  5  4  1  0
  6  5  1  0
  7  6  2  0
  8  7  1  0
 11  8  1  0
 12 11  1  0
  9  8  2  0
 10  9  1  0
 10  5  2  0
M  END
> <structure>
bg33_2

> <pose>
4

> <is_reference>
0

> <rmsd_to_reference_A>
7.201

> <vina_score>
-2.9

> <minimizedAffinity>
-3.34994

> <minimizedRMSD>
0.45681

> <CNNscore>
0.8121286631

> <CNNaffinity>
5.0638909340

> <CNN_VS>
4.1125311852

> <CNNaffinity_variance>
0.2698867321

$$$$
bg33_2_pose5


 20 20  0  0  0  0  0  0  0  0999 V2000
   -2.6723   -1.9539    5.8884 C   0  0  0  0  0  0  0  0  0  0  0  0
   -3.2787   -1.0869    6.4762 O   0  0  0  0  0  0  0  0  0  0  0  0
   -1.3517   -1.6261    5.2572 C   0  0  0  0  0  0  0  0  0  0  0  0
   -0.3003   -2.5014    5.1612 C   0  0  0  0  0  0  0  0  0  0  0  0
    0.9336   -2.1241    4.3788 C   0  0  0  0  0  0  0  0  0  0  0  0
    1.1514   -2.6479    3.1197 C   0  0  0  0  0  0  0  0  0  0  0  0
    2.3162   -2.2866    2.4491 C   0  0  0  0  0  0  0  0  0  0  0  0
    3.2643   -1.4283    2.9895 C   0  0  0  0  0  0  0  0  0  0  0  0
    3.0282   -0.9429    4.2528 C   0  0  0  0  0  0  0  0  0  0  0  0
    1.8629   -1.2793    4.9545 C   0  0  0  0  0  0  0  0  0  0  0  0
    4.4336   -1.1149    2.3038 O   0  0  0  0  0  0  0  0  0  0  0  0
    4.6512   -1.8537    1.0942 C   0  0  0  0  0  0  0  0  0  0  0  0
   -3.2661   -3.2435    5.7627 O   0  0  0  0  0  0  0  0  0  0  0  0
   -3.4983   -4.0179    6.9824 C   0  0  0  0  0  0  0  0  0  0  0  0
   -2.2768   -4.1474    7.8700 C   0  0  0  0  0  0  0  0  0  0  0  0
   -2.5437   -3.4644    9.2688 C   0  0  0  0  0  0  0  0  0  0  0  0
   -3.9918   -5.3984    6.6526 C   0  0  0  0  0  0  0  0  0  0  0  0
   -3.6123   -5.7967    5.2157 C   0  0  0  0  0  0  0  0  0  0  0  0
   -1.1674   -6.0889    4.8104 C   0  0  0  0  0  0  0  0  0  0  0  0
   -2.4861   -6.7968    5.1694 C   0  0  0  0  0  0  0  0  0  0  0  0
 20 19  1  0
 18 20  1  0
 17 18  1  0
 14 17  1  0
 15 14  1  0
 16 15  1  0
 13 14  1  0
  1 13  1  0
  2  1  2  0
  3  1  1  0
  4  3  2  0
  5  4  1  0
  6  5  1  0
  7  6  2  0
  8  7  1  0
 11  8  1  0
 12 11  1  0
  9  8  2  0
 10  9  1  0
 10  5  2  0
M  END
> <structure>
bg33_2

> <pose>
5

> <is_reference>
0

> <rmsd_to_reference_A>
10.168

> <vina_score>
-2.9

> <minimizedAffinity>
-3.00394

> <minimizedRMSD>
0.15507

> <CNNscore>
0.5095354915

> <CNNaffinity>
4.8828926086

> <CNN_VS>
2.4880070686

> <CNNaffinity_variance>
0.2293377668

$$$$
bg33_2_pose6


 20 20  0  0  0  0  0  0  0  0999 V2000
    3.4263   -0.5683    4.7972 C   0  0  0  0  0  0  0  0  0  0  0  0
    4.2215   -1.1998    5.4565 O   0  0  0  0  0  0  0  0  0  0  0  0
    3.6286    0.9070    4.6218 C   0  0  0  0  0  0  0  0  0  0  0  0
    4.4372    1.4693    3.6670 C   0  0  0  0  0  0  0  0  0  0  0  0
    4.4605    2.9668    3.4772 C   0  0  0  0  0  0  0  0  0  0  0  0
    3.3703    3.7337    3.8364 C   0  0  0  0  0  0  0  0  0  0  0  0
    3.4330    5.1072    3.6192 C   0  0  0  0  0  0  0  0  0  0  0  0
    4.5366    5.7354    3.0579 C   0  0  0  0  0  0  0  0  0  0  0  0
    5.5943    4.9391    2.6906 C   0  0  0  0  0  0  0  0  0  0  0  0
    5.5693    3.5544    2.9015 C   0  0  0  0  0  0  0  0  0  0  0  0
    4.5507    7.1068    2.8246 O   0  0  0  0  0  0  0  0  0  0  0  0
    5.4276    7.5411    1.7774 C   0  0  0  0  0  0  0  0  0  0  0  0
    2.2895   -1.2407    4.2639 O   0  0  0  0  0  0  0  0  0  0  0  0
    2.5010   -2.2057    3.1837 C   0  0  0  0  0  0  0  0  0  0  0  0
    3.2153   -1.6310    1.9783 C   0  0  0  0  0  0  0  0  0  0  0  0
    4.6118   -2.3414    1.7789 C   0  0  0  0  0  0  0  0  0  0  0  0
    1.1947   -2.7895    2.7261 C   0  0  0  0  0  0  0  0  0  0  0  0
    1.3730   -4.2371    2.2372 C   0  0  0  0  0  0  0  0  0  0  0  0
    2.3263   -4.8794    0.0215 C   0  0  0  0  0  0  0  0  0  0  0  0
    1.0705   -4.3951    0.7683 C   0  0  0  0  0  0  0  0  0  0  0  0
 20 19  1  0
 18 20  1  0
 17 18  1  0
 14 17  1  0
 15 14  1  0
 16 15  1  0
 13 14  1  0
  1 13  1  0
  2  1  2  0
  3  1  1  0
  4  3  2  0
  5  4  1  0
  6  5  1  0
  7  6  2  0
  8  7  1  0
 11  8  1  0
 12 11  1  0
  9  8  2  0
 10  9  1  0
 10  5  2  0
M  END
> <structure>
bg33_2

> <pose>
6

> <is_reference>
0

> <rmsd_to_reference_A>
7.829

> <vina_score>
-2.9

> <minimizedAffinity>
-3.13716

> <minimizedRMSD>
0.26869

> <CNNscore>
0.5354286432

> <CNNaffinity>
4.5687217712

> <CNN_VS>
2.4462244511

> <CNNaffinity_variance>
0.2405820936

$$$$
bg33_2_pose7


 20 20  0  0  0  0  0  0  0  0999 V2000
    1.8041   -5.5717   -4.2043 C   0  0  0  0  0  0  0  0  0  0  0  0
    2.2320   -6.6420   -4.5760 O   0  0  0  0  0  0  0  0  0  0  0  0
    2.7623   -4.4430   -3.9672 C   0  0  0  0  0  0  0  0  0  0  0  0
    3.6720   -4.4026   -2.9412 C   0  0  0  0  0  0  0  0  0  0  0  0
    4.6910   -3.2909   -2.8727 C   0  0  0  0  0  0  0  0  0  0  0  0
    5.0312   -2.5846   -4.0091 C   0  0  0  0  0  0  0  0  0  0  0  0
    5.9941   -1.5845   -3.8964 C   0  0  0  0  0  0  0  0  0  0  0  0
    6.6234   -1.2705   -2.7001 C   0  0  0  0  0  0  0  0  0  0  0  0
    6.2784   -2.0095   -1.5942 C   0  0  0  0  0  0  0  0  0  0  0  0
    5.3078   -3.0176   -1.6682 C   0  0  0  0  0  0  0  0  0  0  0  0
    7.6055   -0.2877   -2.6329 O   0  0  0  0  0  0  0  0  0  0  0  0
    8.6698   -0.4185   -3.5840 C   0  0  0  0  0  0  0  0  0  0  0  0
    0.4092   -5.4422   -3.9456 O   0  0  0  0  0  0  0  0  0  0  0  0
   -0.0815   -4.1657   -3.4242 C   0  0  0  0  0  0  0  0  0  0  0  0
   -0.8538   -4.2890   -2.1258 C   0  0  0  0  0  0  0  0  0  0  0  0
    0.1161   -4.6995   -0.9497 C   0  0  0  0  0  0  0  0  0  0  0  0
   -0.9561   -3.4779   -4.4320 C   0  0  0  0  0  0  0  0  0  0  0  0
   -0.4854   -2.0353   -4.6854 C   0  0  0  0  0  0  0  0  0  0  0  0
    1.7458   -1.0183   -5.1486 C   0  0  0  0  0  0  0  0  0  0  0  0
    0.6481   -1.9606   -5.6752 C   0  0  0  0  0  0  0  0  0  0  0  0
 20 19  1  0
 18 20  1  0
 17 18  1  0
 14 17  1  0
 15 14  1  0
 16 15  1  0
 13 14  1  0
  1 13  1  0
  2  1  2  0
  3  1  1  0
  4  3  2  0
  5  4  1  0
  6  5  1  0
  7  6  2  0
  8  7  1  0
 11  8  1  0
 12 11  1  0
  9  8  2  0
 10  9  1  0
 10  5  2  0
M  END
> <structure>
bg33_2

> <pose>
7

> <is_reference>
0

> <rmsd_to_reference_A>
7.035

> <vina_score>
-2.9

> <minimizedAffinity>
-2.95015

> <minimizedRMSD>
0.27597

> <CNNscore>
0.2806310654

> <CNNaffinity>
4.0618104935

> <CNN_VS>
1.1398701668

> <CNNaffinity_variance>
0.1519379765

$$$$
bg33_2_pose8


 20 20  0  0  0  0  0  0  0  0999 V2000
   -1.7265   -4.9840   -1.1983 C   0  0  0  0  0  0  0  0  0  0  0  0
   -2.9229   -4.9548   -1.3794 O   0  0  0  0  0  0  0  0  0  0  0  0
   -0.8350   -4.1254   -2.0450 C   0  0  0  0  0  0  0  0  0  0  0  0
   -0.8492   -4.1127   -3.4170 C   0  0  0  0  0  0  0  0  0  0  0  0
   -0.0179   -3.1073   -4.1748 C   0  0  0  0  0  0  0  0  0  0  0  0
    1.3175   -3.3514   -4.4251 C   0  0  0  0  0  0  0  0  0  0  0  0
    2.0465   -2.3813   -5.1090 C   0  0  0  0  0  0  0  0  0  0  0  0
    1.4927   -1.1861   -5.5454 C   0  0  0  0  0  0  0  0  0  0  0  0
    0.1673   -0.9656   -5.2598 C   0  0  0  0  0  0  0  0  0  0  0  0
   -0.5997   -1.9223   -4.5810 C   0  0  0  0  0  0  0  0  0  0  0  0
    2.2599   -0.2255   -6.1960 O   0  0  0  0  0  0  0  0  0  0  0  0
    3.5761   -0.6478   -6.5756 C   0  0  0  0  0  0  0  0  0  0  0  0
   -1.2019   -5.8843   -0.2266 O   0  0  0  0  0  0  0  0  0  0  0  0
    0.2510   -5.9597   -0.0679 C   0  0  0  0  0  0  0  0  0  0  0  0
    0.8079   -7.3656   -0.1728 C   0  0  0  0  0  0  0  0  0  0  0  0
    1.0950   -7.7277   -1.6830 C   0  0  0  0  0  0  0  0  0  0  0  0
    0.6758   -5.3801    1.2512 C   0  0  0  0  0  0  0  0  0  0  0  0
    1.4560   -4.0686    1.0588 C   0  0  0  0  0  0  0  0  0  0  0  0
    2.4901   -2.1372    2.2538 C   0  0  0  0  0  0  0  0  0  0  0  0
    1.3153   -3.1325    2.2305 C   0  0  0  0  0  0  0  0  0  0  0  0
 20 19  1  0
 18 20  1  0
 17 18  1  0
 14 17  1  0
 15 14  1  0
 16 15  1  0
 13 14  1  0
  1 13  1  0
  2  1  2  0
  3  1  1  0
  4  3  2  0
  5  4  1  0
  6  5  1  0
  7  6  2  0
  8  7  1  0
 11  8  1  0
 12 11  1  0
  9  8  2  0
 10  9  1  0
 10  5  2  0
M  END
> <structure>
bg33_2

> <pose>
8

> <is_reference>
0

> <rmsd_to_reference_A>
8.735

> <vina_score>
-2.9

> <minimizedAffinity>
-3.22801

> <minimizedRMSD>
0.18786

> <CNNscore>
0.5861260891

> <CNNaffinity>
4.7536683083

> <CNN_VS>
2.7862489223

> <CNNaffinity_variance>
0.0804871395

$$$$
bg33_2_pose9


 20 20  0  0  0  0  0  0  0  0999 V2000
    1.1953   -2.4658    3.9874 C   0  0  0  0  0  0  0  0  0  0  0  0
    1.0877   -2.6652    2.7980 O   0  0  0  0  0  0  0  0  0  0  0  0
   -0.0279   -2.5310    4.8545 C   0  0  0  0  0  0  0  0  0  0  0  0
   -0.8870   -1.4825    5.0600 C   0  0  0  0  0  0  0  0  0  0  0  0
   -2.1671   -1.6902    5.8315 C   0  0  0  0  0  0  0  0  0  0  0  0
   -2.8027   -2.9151    5.8143 C   0  0  0  0  0  0  0  0  0  0  0  0
   -3.9930   -3.0478    6.5241 C   0  0  0  0  0  0  0  0  0  0  0  0
   -4.5674   -2.0078    7.2422 C   0  0  0  0  0  0  0  0  0  0  0  0
   -3.9201   -0.7956    7.2189 C   0  0  0  0  0  0  0  0  0  0  0  0
   -2.7160   -0.6277    6.5217 C   0  0  0  0  0  0  0  0  0  0  0  0
   -5.7762   -2.1683    7.9115 O   0  0  0  0  0  0  0  0  0  0  0  0
   -6.8470   -1.3327    7.4513 C   0  0  0  0  0  0  0  0  0  0  0  0
    2.4714   -2.1138    4.5130 O   0  0  0  0  0  0  0  0  0  0  0  0
    2.8295   -0.6961    4.5667 C   0  0  0  0  0  0  0  0  0  0  0  0
    3.8824   -0.2895    3.5551 C   0  0  0  0  0  0  0  0  0  0  0  0
    4.3182    1.2103    3.7921 C   0  0  0  0  0  0  0  0  0  0  0  0
    3.3187   -0.3200    5.9356 C   0  0  0  0  0  0  0  0  0  0  0  0
    2.1508    0.0635    6.8600 C   0  0  0  0  0  0  0  0  0  0  0  0
    0.1656    1.5210    7.2646 C   0  0  0  0  0  0  0  0  0  0  0  0
    1.3773    1.2541    6.3541 C   0  0  0  0  0  0  0  0  0  0  0  0
 20 19  1  0
 18 20  1  0
 17 18  1  0
 14 17  1  0
 15 14  1  0
 16 15  1  0
 13 14  1  0
  1 13  1  0
  2  1  2  0
  3  1  1  0
  4  3  2  0
  5  4  1  0
  6  5  1  0
  7  6  2  0
  8  7  1  0
 11  8  1  0
 12 11  1  0
  9  8  2  0
 10  9  1  0
 10  5  2  0
M  END
> <structure>
bg33_2

> <pose>
9

> <is_reference>
0

> <rmsd_to_reference_A>
8.530

> <vina_score>
-2.8

> <minimizedAffinity>
-2.90608

> <minimizedRMSD>
0.19925

> <CNNscore>
0.3381727636

> <CNNaffinity>
4.4260382652

> <CNN_VS>
1.4967656136

> <CNNaffinity_variance>
0.0417873561

$$$$
