bg33_1_pose0_reference


 20 20  0  0  0  0  0  0  0  0999 V2000
    4.7179   -9.0660   13.9817 C   0  0  0  0  0  0  0  0  0  0  0  0
    5.5732   -9.3586   13.1896 O   0  0  0  0  0  0  0  0  0  0  0  0
    3.4989   -8.5019   13.5581 C   0  0  0  0  0  0  0  0  0  0  0  0
    3.5444   -7.5610   12.7254 C   0  0  0  0  0  0  0  0  0  0  0  0
    2.4556   -6.8119   12.3354 C   0  0  0  0  0  0  0  0  0  0  0  0
    1.2240   -7.3389   12.2850 C   0  0  0  0  0  0  0  0  0  0  0  0
    0.1418   -6.6167   11.9020 C   0  0  0  0  0  0  0  0  0  0  0  0
    0.3472   -5.3023   11.6005 C   0  0  0  0  0  0  0  0  0  0  0  0
    1.5337   -4.7328   11.6455 C   0  0  0  0  0  0  0  0  0  0  0  0
    2.5969   -5.4957   11.9888 C   0  0  0  0  0  0  0  0  0  0  0  0
   -0.6522   -4.5460   11.2128 O   0  0  0  0  0  0  0  0  0  0  0  0
   -0.2973   -3.2274   10.9732 C   0  0  0  0  0  0  0  0  0  0  0  0
    4.9068   -9.2721   15.2409 O   0  0  0  0  0  0  0  0  0  0  0  0
    6.0515   -8.9042   15.6213 C   0  0  0  0  0  0  0  0  0  0  0  0
    6.1022   -7.4453   15.9254 C   0  0  0  0  0  0  0  0  0  0  0  0
    5.3945   -7.0870   17.0939 C   0  0  0  0  0  0  0  0  0  0  0  0
    6.7135   -9.7860   16.4889 C   0  0  0  0  0  0  0  0  0  0  0  0
    6.5012  -11.1553   16.1841 C   0  0  0  0  0  0  0  0  0  0  0  0
    7.0912  -12.3420   14.1505 C   0  0  0  0  0  0  0  0  0  0  0  0
    7.5841  -11.4479   15.2662 C   0  0  0  0  0  0  0  0  0  0  0  0
 20 19  1  0
 18 20  1  0
 17 18  1  0
 14 17  1  0
 15 14  1  0
 16 15  1  0
 13 14  1  0
  1 13  1  0
  2  1  2  0
  3  1  1  0
  4  3  2  0
  5  4  1  0
  6  5  1  0
  7  6  2  0
  8  7  1  0
 11  8  1  0
 12 11  1  0
  9  8  2  0
 10  5  2  0
 10  9  1  0
M  END
> <structure>
bg33_1

> <pose>
0

> <is_reference>
1

> <rmsd_to_reference_A>
0.000

> <vina_score>


> <minimizedAffinity>
-2.35502

> <minimizedRMSD>
1.98530

> <CNNscore>
0.7996443510

> <CNNaffinity>
5.0918893814

> <CNN_VS>
4.0717005730

> <CNNaffinity_variance>
0.5926461816

$$$$
bg33_1_pose1


 20 20  0  0  0  0  0  0  0  0999 V2000
    4.5649   -3.7990    8.9878 C   0  0  0  0  0  0  0  0  0  0  0  0
    5.3800   -3.0933    9.5178 O   0  0  0  0  0  0  0  0  0  0  0  0
    4.1128   -4.9794    9.6095 C   0  0  0  0  0  0  0  0  0  0  0  0
    3.4420   -4.8661   10.6674 C   0  0  0  0  0  0  0  0  0  0  0  0
    3.0642   -5.9220   11.4674 C   0  0  0  0  0  0  0  0  0  0  0  0
    1.7967   -6.3572   11.5005 C   0  0  0  0  0  0  0  0  0  0  0  0
    1.4066   -7.3942   12.2829 C   0  0  0  0  0  0  0  0  0  0  0  0
    2.3724   -8.0139   13.0202 C   0  0  0  0  0  0  0  0  0  0  0  0
    3.6337   -7.6332   13.0148 C   0  0  0  0  0  0  0  0  0  0  0  0
    3.9769   -6.5670   12.2569 C   0  0  0  0  0  0  0  0  0  0  0  0
    2.0656   -9.0171   13.8077 O   0  0  0  0  0  0  0  0  0  0  0  0
    2.5740   -8.8980   15.0920 C   0  0  0  0  0  0  0  0  0  0  0  0
    4.0882   -3.4793    7.8330 O   0  0  0  0  0  0  0  0  0  0  0  0
    3.7318   -2.2712    7.7788 C   0  0  0  0  0  0  0  0  0  0  0  0
    4.2529   -1.5842    6.5622 C   0  0  0  0  0  0  0  0  0  0  0  0
    5.4028   -0.8014    6.8045 C   0  0  0  0  0  0  0  0  0  0  0  0
    2.4098   -2.0112    8.1721 C   0  0  0  0  0  0  0  0  0  0  0  0
    2.2688   -0.8438    8.9665 C   0  0  0  0  0  0  0  0  0  0  0  0
    0.8370   -2.2782   10.3028 C   0  0  0  0  0  0  0  0  0  0  0  0
    2.0589   -1.3866   10.2933 C   0  0  0  0  0  0  0  0  0  0  0  0
 20 19  1  0
 18 20  1  0
 17 18  1  0
 14 17  1  0
 15 14  1  0
 16 15  1  0
 13 14  1  0
  1 13  1  0
  2  1  2  0
  3  1  1  0
  4  3  2  0
  5  4  1  0
  6  5  1  0
  7  6  2  0
  8  7  1  0
 11  8  1  0
 12 11  1  0
  9  8  2  0
 10  5  2  0
 10  9  1  0
M  END
> <structure>
bg33_1

> <pose>
1

> <is_reference>
0

> <rmsd_to_reference_A>
8.050

> <vina_score>
-3.2

> <minimizedAffinity>
-3.22510

> <minimizedRMSD>
0.13022

> <CNNscore>
0.4962842166

> <CNNaffinity>
4.2665801048

> <CNN_VS>
2.1174364090

> <CNNaffinity_variance>
0.4045903683

$$$$
bg33_1_pose2


 20 20  0  0  0  0  0  0  0  0999 V2000
   -2.7716   -3.2852    7.6030 C   0  0  0  0  0  0  0  0  0  0  0  0
   -3.5755   -2.4720    7.9710 O   0  0  0  0  0  0  0  0  0  0  0  0
   -2.9034   -4.6444    7.9474 C   0  0  0  0  0  0  0  0  0  0  0  0
   -2.8682   -5.4922    7.0206 C   0  0  0  0  0  0  0  0  0  0  0  0
   -3.1344   -6.8345    7.1814 C   0  0  0  0  0  0  0  0  0  0  0  0
   -3.9501   -7.4932    6.3457 C   0  0  0  0  0  0  0  0  0  0  0  0
   -4.2248   -8.8129    6.4906 C   0  0  0  0  0  0  0  0  0  0  0  0
   -3.6023   -9.4684    7.5121 C   0  0  0  0  0  0  0  0  0  0  0  0
   -2.7834   -8.8725    8.3536 C   0  0  0  0  0  0  0  0  0  0  0  0
   -2.5677   -7.5452    8.2053 C   0  0  0  0  0  0  0  0  0  0  0  0
   -3.8274  -10.7442    7.7177 O   0  0  0  0  0  0  0  0  0  0  0  0
   -2.6985  -11.5395    7.6013 C   0  0  0  0  0  0  0  0  0  0  0  0
   -1.7714   -2.9193    6.8747 O   0  0  0  0  0  0  0  0  0  0  0  0
   -1.3540   -1.7674    7.1756 C   0  0  0  0  0  0  0  0  0  0  0  0
   -0.2965   -1.8081    8.2255 C   0  0  0  0  0  0  0  0  0  0  0  0
    0.9399   -1.2700    7.8025 C   0  0  0  0  0  0  0  0  0  0  0  0
   -1.1864   -0.8848    6.0982 C   0  0  0  0  0  0  0  0  0  0  0  0
   -2.1461    0.1606    6.0605 C   0  0  0  0  0  0  0  0  0  0  0  0
   -3.4418    0.9705    4.1750 C   0  0  0  0  0  0  0  0  0  0  0  0
   -2.0633    0.6172    4.6877 C   0  0  0  0  0  0  0  0  0  0  0  0
 20 19  1  0
 18 20  1  0
 17 18  1  0
 14 17  1  0
 15 14  1  0
 16 15  1  0
 13 14  1  0
  1 13  1  0
  2  1  2  0
  3  1  1  0
  4  3  2  0
  5  4  1  0
  6  5  1  0
  7  6  2  0
  8  7  1  0
 11  8  1  0
 12 11  1  0
  9  8  2  0
 10  5  2  0
 10  9  1  0
M  END
> <structure>
bg33_1

> <pose>
2

> <is_reference>
0

> <rmsd_to_reference_A>
11.471

> <vina_score>
-3.1

> <minimizedAffinity>
-3.65194

> <minimizedRMSD>
0.16599

> <CNNscore>
0.8923502564

> <CNNaffinity>
5.3275985718

> <CNN_VS>
4.7540841103

> <CNNaffinity_variance>
0.5268678069

$$$$
bg33_1_pose3


 20 20  0  0  0  0  0  0  0  0999 V2000
    0.5096   -0.6652    7.7778 C   0  0  0  0  0  0  0  0  0  0  0  0
    0.2161    0.2555    8.4936 O   0  0  0  0  0  0  0  0  0  0  0  0
    1.5956   -1.5071    8.0889 C   0  0  0  0  0  0  0  0  0  0  0  0
    2.6854   -1.3041    7.4944 C   0  0  0  0  0  0  0  0  0  0  0  0
    3.7833   -2.1321    7.5771 C   0  0  0  0  0  0  0  0  0  0  0  0
    3.7682   -3.2436    8.3258 C   0  0  0  0  0  0  0  0  0  0  0  0
    4.8406   -4.0692    8.4194 C   0  0  0  0  0  0  0  0  0  0  0  0
    5.9416   -3.7439    7.6829 C   0  0  0  0  0  0  0  0  0  0  0  0
    6.0034   -2.6704    6.9217 C   0  0  0  0  0  0  0  0  0  0  0  0
    4.9310   -1.8469    6.8886 C   0  0  0  0  0  0  0  0  0  0  0  0
    7.0185   -4.4907    7.7330 O   0  0  0  0  0  0  0  0  0  0  0  0
    6.7689   -5.8120    8.0698 C   0  0  0  0  0  0  0  0  0  0  0  0
   -0.1747   -0.8963    6.7101 O   0  0  0  0  0  0  0  0  0  0  0  0
   -1.3585   -1.2490    6.9655 C   0  0  0  0  0  0  0  0  0  0  0  0
   -2.3632   -0.3252    6.3667 C   0  0  0  0  0  0  0  0  0  0  0  0
   -1.9247    0.2915    5.1734 C   0  0  0  0  0  0  0  0  0  0  0  0
   -1.6050   -2.6288    6.9019 C   0  0  0  0  0  0  0  0  0  0  0  0
   -2.3338   -3.1312    8.0107 C   0  0  0  0  0  0  0  0  0  0  0  0
   -4.3294   -3.9312    6.8836 C   0  0  0  0  0  0  0  0  0  0  0  0
   -2.9817   -4.3043    7.4596 C   0  0  0  0  0  0  0  0  0  0  0  0
 20 19  1  0
 18 20  1  0
 17 18  1  0
 14 17  1  0
 15 14  1  0
 16 15  1  0
 13 14  1  0
  1 13  1  0
  2  1  2  0
  3  1  1  0
  4  3  2  0
  5  4  1  0
  6  5  1  0
  7  6  2  0
  8  7  1  0
 11  8  1  0
 12 11  1  0
  9  8  2  0
 10  5  2  0
 10  9  1  0
M  END
> <structure>
bg33_1

> <pose>
3

> <is_reference>
0

> <rmsd_to_reference_A>
11.063

> <vina_score>
-3.1

> <minimizedAffinity>
-3.53813

> <minimizedRMSD>
0.54047

> <CNNscore>
0.6820254922

> <CNNaffinity>
4.8451704979

> <CNN_VS>
3.3045299053

> <CNNaffinity_variance>
0.0798161551

$$$$
bg33_1_pose4


 20 20  0  0  0  0  0  0  0  0999 V2000
   -3.3032   -7.7224    7.0391 C   0  0  0  0  0  0  0  0  0  0  0  0
   -4.0814   -8.1170    6.2126 O   0  0  0  0  0  0  0  0  0  0  0  0
   -2.8824   -6.3779    7.0548 C   0  0  0  0  0  0  0  0  0  0  0  0
   -3.7478   -5.4936    7.2767 C   0  0  0  0  0  0  0  0  0  0  0  0
   -3.5213   -4.1384    7.1732 C   0  0  0  0  0  0  0  0  0  0  0  0
   -4.5311   -3.2677    7.0293 C   0  0  0  0  0  0  0  0  0  0  0  0
   -4.3271   -1.9311    6.9250 C   0  0  0  0  0  0  0  0  0  0  0  0
   -3.0383   -1.4917    7.0091 C   0  0  0  0  0  0  0  0  0  0  0  0
   -2.0121   -2.3028    7.1617 C   0  0  0  0  0  0  0  0  0  0  0  0
   -2.2506   -3.6338    7.2183 C   0  0  0  0  0  0  0  0  0  0  0  0
   -2.7645   -0.2126    6.9053 O   0  0  0  0  0  0  0  0  0  0  0  0
   -1.9098    0.0948    5.8588 C   0  0  0  0  0  0  0  0  0  0  0  0
   -2.8448   -8.5311    7.9327 O   0  0  0  0  0  0  0  0  0  0  0  0
   -3.7613   -9.0538    8.6236 C   0  0  0  0  0  0  0  0  0  0  0  0
   -3.5118  -10.4998    8.8892 C   0  0  0  0  0  0  0  0  0  0  0  0
   -2.9377  -11.1842    7.7959 C   0  0  0  0  0  0  0  0  0  0  0  0
   -4.2554   -8.2626    9.6719 C   0  0  0  0  0  0  0  0  0  0  0  0
   -3.3760   -8.1697   10.7814 C   0  0  0  0  0  0  0  0  0  0  0  0
   -1.5919   -6.5387   10.5651 C   0  0  0  0  0  0  0  0  0  0  0  0
   -3.0663   -6.7548   10.8246 C   0  0  0  0  0  0  0  0  0  0  0  0
 20 19  1  0
 18 20  1  0
 17 18  1  0
 14 17  1  0
 15 14  1  0
 16 15  1  0
 13 14  1  0
  1 13  1  0
  2  1  2  0
  3  1  1  0
  4  3  2  0
  5  4  1  0
  6  5  1  0
  7  6  2  0
  8  7  1  0
 11  8  1  0
 12 11  1  0
  9  8  2  0
 10  5  2  0
 10  9  1  0
M  END
> <structure>
bg33_1

> <pose>
4

> <is_reference>
0

> <rmsd_to_reference_A>
9.421

> <vina_score>
-3.1

> <minimizedAffinity>
-3.10509

> <minimizedRMSD>
0.10789

> <CNNscore>
0.4548180699

> <CNNaffinity>
4.5159583092

> <CNN_VS>
2.0539393425

> <CNNaffinity_variance>
0.0870577395

$$$$
bg33_1_pose5


 20 20  0  0  0  0  0  0  0  0999 V2000
   -3.5170   -5.9339    7.7285 C   0  0  0  0  0  0  0  0  0  0  0  0
   -4.6947   -5.9043    7.9687 O   0  0  0  0  0  0  0  0  0  0  0  0
   -2.8530   -4.8038    7.2152 C   0  0  0  0  0  0  0  0  0  0  0  0
   -3.1468   -3.6798    7.6972 C   0  0  0  0  0  0  0  0  0  0  0  0
   -2.6979   -2.4763    7.1976 C   0  0  0  0  0  0  0  0  0  0  0  0
   -1.4036   -2.2732    6.9136 C   0  0  0  0  0  0  0  0  0  0  0  0
   -0.9453   -1.0958    6.4231 C   0  0  0  0  0  0  0  0  0  0  0  0
   -1.8689   -0.1184    6.1888 C   0  0  0  0  0  0  0  0  0  0  0  0
   -3.1521   -0.2703    6.4393 C   0  0  0  0  0  0  0  0  0  0  0  0
   -3.5673   -1.4435    6.9705 C   0  0  0  0  0  0  0  0  0  0  0  0
   -1.4951    1.0498    5.7251 O   0  0  0  0  0  0  0  0  0  0  0  0
   -2.0156    1.3491    4.4747 C   0  0  0  0  0  0  0  0  0  0  0  0
   -2.8412   -7.0115    7.9452 O   0  0  0  0  0  0  0  0  0  0  0  0
   -2.9205   -7.3951    9.1438 C   0  0  0  0  0  0  0  0  0  0  0  0
   -3.3363   -8.8228    9.2529 C   0  0  0  0  0  0  0  0  0  0  0  0
   -3.0909   -9.5731    8.0812 C   0  0  0  0  0  0  0  0  0  0  0  0
   -1.9060   -6.9325    9.9963 C   0  0  0  0  0  0  0  0  0  0  0  0
   -2.3573   -6.6143   11.3027 C   0  0  0  0  0  0  0  0  0  0  0  0
   -1.3985   -4.4242   10.8879 C   0  0  0  0  0  0  0  0  0  0  0  0
   -2.6573   -5.2006   11.1994 C   0  0  0  0  0  0  0  0  0  0  0  0
 20 19  1  0
 18 20  1  0
 17 18  1  0
 14 17  1  0
 15 14  1  0
 16 15  1  0
 13 14  1  0
  1 13  1  0
  2  1  2  0
  3  1  1  0
  4  3  2  0
  5  4  1  0
  6  5  1  0
  7  6  2  0
  8  7  1  0
 11  8  1  0
 12 11  1  0
  9  8  2  0
 10  5  2  0
 10  9  1  0
M  END
> <structure>
bg33_1

> <pose>
5

> <is_reference>
0

> <rmsd_to_reference_A>
9.524

> <vina_score>
-3.1

> <minimizedAffinity>
-3.11164

> <minimizedRMSD>
0.15689

> <CNNscore>
0.4547974169

> <CNNaffinity>
4.3712534904

> <CNN_VS>
1.9880348444

> <CNNaffinity_variance>
0.1701204181

$$$$
bg33_1_pose6


 20 20  0  0  0  0  0  0  0  0999 V2000
   -0.7281   -0.9399    6.6609 C   0  0  0  0  0  0  0  0  0  0  0  0
    0.1993   -0.2290    6.9390 O   0  0  0  0  0  0  0  0  0  0  0  0
   -1.0320   -2.0740    7.4405 C   0  0  0  0  0  0  0  0  0  0  0  0
   -1.9681   -2.8186    7.0541 C   0  0  0  0  0  0  0  0  0  0  0  0
   -2.4791   -3.8701    7.7838 C   0  0  0  0  0  0  0  0  0  0  0  0
   -2.4500   -3.8728    9.1235 C   0  0  0  0  0  0  0  0  0  0  0  0
   -2.9467   -4.8996    9.8575 C   0  0  0  0  0  0  0  0  0  0  0  0
   -3.5212   -5.9307    9.1735 C   0  0  0  0  0  0  0  0  0  0  0  0
   -3.5865   -5.9716    7.8590 C   0  0  0  0  0  0  0  0  0  0  0  0
   -3.0402   -4.9503    7.1587 C   0  0  0  0  0  0  0  0  0  0  0  0
   -4.0140   -6.9615    9.8180 O   0  0  0  0  0  0  0  0  0  0  0  0
   -3.2389   -8.1074    9.7181 C   0  0  0  0  0  0  0  0  0  0  0  0
   -1.4672   -0.6677    5.6398 O   0  0  0  0  0  0  0  0  0  0  0  0
   -1.9596    0.4905    5.6984 C   0  0  0  0  0  0  0  0  0  0  0  0
   -1.8617    1.2121    4.3971 C   0  0  0  0  0  0  0  0  0  0  0  0
   -1.0253    2.3488    4.4424 C   0  0  0  0  0  0  0  0  0  0  0  0
   -3.1500    0.6056    6.4320 C   0  0  0  0  0  0  0  0  0  0  0  0
   -4.2706    0.0048    5.8018 C   0  0  0  0  0  0  0  0  0  0  0  0
   -5.4788   -2.0050    6.4270 C   0  0  0  0  0  0  0  0  0  0  0  0
   -4.9230   -0.6799    6.8999 C   0  0  0  0  0  0  0  0  0  0  0  0
 20 19  1  0
 18 20  1  0
 17 18  1  0
 14 17  1  0
 15 14  1  0
 16 15  1  0
 13 14  1  0
  1 13  1  0
  2  1  2  0
  3  1  1  0
  4  3  2  0
  5  4  1  0
  6  5  1  0
  7  6  2  0
  8  7  1  0
 11  8  1  0
 12 11  1  0
  9  8  2  0
 10  5  2  0
 10  9  1  0
M  END
> <structure>
bg33_1

> <pose>
6

> <is_reference>
0

> <rmsd_to_reference_A>
11.941

> <vina_score>
-3.0

> <minimizedAffinity>
-3.04948

> <minimizedRMSD>
0.24295

> <CNNscore>
0.4002414346

> <CNNaffinity>
4.5960841179

> <CNN_VS>
1.8395433426

> <CNNaffinity_variance>
0.0610053241

$$$$
bg33_1_pose7


 20 20  0  0  0  0  0  0  0  0999 V2000
    8.3992   -7.2688    9.5768 C   0  0  0  0  0  0  0  0  0  0  0  0
    8.1304   -7.7246   10.6556 O   0  0  0  0  0  0  0  0  0  0  0  0
    7.8666   -6.0336    9.1576 C   0  0  0  0  0  0  0  0  0  0  0  0
    6.6160   -5.9119    9.1304 C   0  0  0  0  0  0  0  0  0  0  0  0
    5.9504   -4.8272    8.6021 C   0  0  0  0  0  0  0  0  0  0  0  0
    4.6771   -4.5601    8.9255 C   0  0  0  0  0  0  0  0  0  0  0  0
    4.0065   -3.4987    8.4141 C   0  0  0  0  0  0  0  0  0  0  0  0
    4.6957   -2.6748    7.5739 C   0  0  0  0  0  0  0  0  0  0  0  0
    5.9506   -2.8845    7.2330 C   0  0  0  0  0  0  0  0  0  0  0  0
    6.5732   -3.9781    7.7282 C   0  0  0  0  0  0  0  0  0  0  0  0
    4.1068   -1.6334    7.0336 O   0  0  0  0  0  0  0  0  0  0  0  0
    2.7932   -1.4581    7.4416 C   0  0  0  0  0  0  0  0  0  0  0  0
    9.1900   -7.9094    8.7838 O   0  0  0  0  0  0  0  0  0  0  0  0
    8.5683   -8.6961    8.0188 C   0  0  0  0  0  0  0  0  0  0  0  0
    8.5032   -8.1857    6.6189 C   0  0  0  0  0  0  0  0  0  0  0  0
    7.1887   -7.9241    6.1745 C   0  0  0  0  0  0  0  0  0  0  0  0
    8.8254  -10.0612    8.2159 C   0  0  0  0  0  0  0  0  0  0  0  0
    7.6929  -10.8013    8.6434 C   0  0  0  0  0  0  0  0  0  0  0  0
    7.6805  -11.1088   11.0508 C   0  0  0  0  0  0  0  0  0  0  0  0
    8.2257  -11.5997    9.7288 C   0  0  0  0  0  0  0  0  0  0  0  0
 20 19  1  0
 18 20  1  0
 17 18  1  0
 14 17  1  0
 15 14  1  0
 16 15  1  0
 13 14  1  0
  1 13  1  0
  2  1  2  0
  3  1  1  0
  4  3  2  0
  5  4  1  0
  6  5  1  0
  7  6  2  0
  8  7  1  0
 11  8  1  0
 12 11  1  0
  9  8  2  0
 10  5  2  0
 10  9  1  0
M  END
> <structure>
bg33_1

> <pose>
7

> <is_reference>
0

> <rmsd_to_reference_A>
7.069

> <vina_score>
-3.0

> <minimizedAffinity>
-3.35879

> <minimizedRMSD>
0.21751

> <CNNscore>
0.6349433064

> <CNNaffinity>
4.6045794487

> <CNN_VS>
2.9236469269

> <CNNaffinity_variance>
0.7107358575

$$$$
bg33_1_pose8


 20 20  0  0  0  0  0  0  0  0999 V2000
   -3.0703   -7.4478    7.3145 C   0  0  0  0  0  0  0  0  0  0  0  0
   -4.0451   -7.3979    6.6130 O   0  0  0  0  0  0  0  0  0  0  0  0
   -2.6813   -8.6525    7.9323 C   0  0  0  0  0  0  0  0  0  0  0  0
   -3.3720   -9.6789    7.7059 C   0  0  0  0  0  0  0  0  0  0  0  0
   -3.2096  -10.8848    8.3519 C   0  0  0  0  0  0  0  0  0  0  0  0
   -3.6634  -11.0786    9.5983 C   0  0  0  0  0  0  0  0  0  0  0  0
   -3.5114  -12.2583   10.2495 C   0  0  0  0  0  0  0  0  0  0  0  0
   -2.9031  -13.2713    9.5678 C   0  0  0  0  0  0  0  0  0  0  0  0
   -2.4498  -13.1369    8.3380 C   0  0  0  0  0  0  0  0  0  0  0  0
   -2.5799  -11.9320    7.7363 C   0  0  0  0  0  0  0  0  0  0  0  0
   -2.7135  -14.4362   10.1387 O   0  0  0  0  0  0  0  0  0  0  0  0
   -3.3713  -14.5810   11.3502 C   0  0  0  0  0  0  0  0  0  0  0  0
   -2.3595   -6.3887    7.5076 O   0  0  0  0  0  0  0  0  0  0  0  0
   -3.0593   -5.3972    7.8510 C   0  0  0  0  0  0  0  0  0  0  0  0
   -3.3255   -5.3768    9.3181 C   0  0  0  0  0  0  0  0  0  0  0  0
   -2.1986   -5.0243   10.0919 C   0  0  0  0  0  0  0  0  0  0  0  0
   -2.7435   -4.1857    7.2170 C   0  0  0  0  0  0  0  0  0  0  0  0
   -3.8074   -3.2469    7.2165 C   0  0  0  0  0  0  0  0  0  0  0  0
   -1.6426   -2.1847    6.9419 C   0  0  0  0  0  0  0  0  0  0  0  0
   -3.1108   -1.9765    7.2401 C   0  0  0  0  0  0  0  0  0  0  0  0
 20 19  1  0
 18 20  1  0
 17 18  1  0
 14 17  1  0
 15 14  1  0
 16 15  1  0
 13 14  1  0
  1 13  1  0
  2  1  2  0
  3  1  1  0
  4  3  2  0
  5  4  1  0
  6  5  1  0
  7  6  2  0
  8  7  1  0
 11  8  1  0
 12 11  1  0
  9  8  2  0
 10  5  2  0
 10  9  1  0
M  END
> <structure>
bg33_1

> <pose>
8

> <is_reference>
0

> <rmsd_to_reference_A>
10.804

> <vina_score>
-3.0

> <minimizedAffinity>
-3.42279

> <minimizedRMSD>
0.35946

> <CNNscore>
0.6707137823

> <CNNaffinity>
4.6839275360

> <CNN_VS>
3.1415748596

> <CNNaffinity_variance>
0.0572007298

$$$$
bg33_1_pose9


 20 20  0  0  0  0  0  0  0  0999 V2000
   -3.2927  -11.6970    8.1605 C   0  0  0  0  0  0  0  0  0  0  0  0
   -2.3808  -12.2076    8.7553 O   0  0  0  0  0  0  0  0  0  0  0  0
   -3.5497  -10.3174    8.2716 C   0  0  0  0  0  0  0  0  0  0  0  0
   -2.6529   -9.5199    7.8947 C   0  0  0  0  0  0  0  0  0  0  0  0
   -2.6947   -8.1552    8.0809 C   0  0  0  0  0  0  0  0  0  0  0  0
   -2.4610   -7.6039    9.2804 C   0  0  0  0  0  0  0  0  0  0  0  0
   -2.4994   -6.2632    9.4826 C   0  0  0  0  0  0  0  0  0  0  0  0
   -2.7532   -5.4787    8.3958 C   0  0  0  0  0  0  0  0  0  0  0  0
   -2.9784   -5.9691    7.1937 C   0  0  0  0  0  0  0  0  0  0  0  0
   -2.9753   -7.3126    7.0405 C   0  0  0  0  0  0  0  0  0  0  0  0
   -2.8147   -4.1746    8.5182 O   0  0  0  0  0  0  0  0  0  0  0  0
   -2.5053   -3.4859    7.3559 C   0  0  0  0  0  0  0  0  0  0  0  0
   -4.0504  -12.4156    7.4032 O   0  0  0  0  0  0  0  0  0  0  0  0
   -3.6846  -12.3893    6.1958 C   0  0  0  0  0  0  0  0  0  0  0  0
   -2.8828  -13.5900    5.8244 C   0  0  0  0  0  0  0  0  0  0  0  0
   -1.5534  -13.2882    5.4540 C   0  0  0  0  0  0  0  0  0  0  0  0
   -4.6437  -11.9241    5.2829 C   0  0  0  0  0  0  0  0  0  0  0  0
   -4.1340  -10.9882    4.3463 C   0  0  0  0  0  0  0  0  0  0  0  0
   -4.3220   -8.6161    3.8637 C   0  0  0  0  0  0  0  0  0  0  0  0
   -4.7305   -9.7419    4.7866 C   0  0  0  0  0  0  0  0  0  0  0  0
 20 19  1  0
 18 20  1  0
 17 18  1  0
 14 17  1  0
 15 14  1  0
 16 15  1  0
 13 14  1  0
  1 13  1  0
  2  1  2  0
  3  1  1  0
  4  3  2  0
  5  4  1  0
  6  5  1  0
  7  6  2  0
  8  7  1  0
 11  8  1  0
 12 11  1  0
  9  8  2  0
 10  5  2  0
 10  9  1  0
M  END
> <structure>
bg33_1

> <pose>
9

> <is_reference>
0

> <rmsd_to_reference_A>
10.544

> <vina_score>
-3.0

> <minimizedAffinity>
-3.07874

> <minimizedRMSD>
0.08545

> <CNNscore>
0.3224563003

> <CNNaffinity>
4.1176581383

> <CNN_VS>
1.3277647495

> <CNNaffinity_variance>
0.1824485064

$$$$
