orig_f12_ligand
 OpenBabel10092621033D

 20 20  0  0  1  0  0  0  0  0999 V2000
   -7.1260   -1.3450   -4.4440 C   0  0  0  0  0  0  0  0  0  0  0  0
   -8.2890   -1.4690   -4.7610 O   0  0  0  0  0  0  0  0  0  0  0  0
   -6.4140   -0.0610   -4.3870 C   0  0  0  0  0  3  0  0  0  0  0  0
   -5.0830   -0.0560   -4.2450 C   0  0  0  0  0  3  0  0  0  0  0  0
   -4.3120    1.1850   -4.0610 C   0  0  0  0  0  0  0  0  0  0  0  0
   -3.3370    1.3040   -3.0970 C   0  0  0  0  0  3  0  0  0  0  0  0
   -2.6050    2.4730   -2.9760 C   0  0  0  0  0  3  0  0  0  0  0  0
   -2.8560    3.5270   -3.8130 C   0  0  0  0  0  0  0  0  0  0  0  0
   -3.8300    3.4160   -4.7860 C   0  0  0  0  0  3  0  0  0  0  0  0
   -4.5680    2.2440   -4.8980 C   0  0  0  0  0  3  0  0  0  0  0  0
   -2.1550    4.6970   -3.7510 O   0  0  0  0  0  0  0  0  0  0  0  0
   -0.8520    4.7120   -3.1800 C   0  0  0  0  0  1  0  0  0  0  0  0
   -6.3440   -2.3740   -4.1570 O   0  0  0  0  0  0  0  0  0  0  0  0
   -6.6730   -3.2030   -3.0680 C   0  0  1  0  0  3  0  0  0  0  0  0
   -6.7580   -4.6480   -3.5330 C   0  0  0  0  0  2  0  0  0  0  0  0
   -5.6540   -5.5550   -3.0220 C   0  0  0  0  0  1  0  0  0  0  0  0
   -5.6150   -3.0400   -1.9990 C   0  0  0  0  0  2  0  0  0  0  0  0
   -5.9800   -2.0620   -0.9290 C   0  0  0  0  0  2  0  0  0  0  0  0
   -5.4860    0.2840   -0.2350 C   0  0  0  0  0  1  0  0  0  0  0  0
   -4.9150   -1.0210   -0.7370 C   0  0  0  0  0  2  0  0  0  0  0  0
  1  3  1  0  0  0  0
  1 13  1  0  0  0  0
  2  1  2  0  0  0  0
  3  4  2  0  0  0  0
  4  5  1  0  0  0  0
  5  6  1  0  0  0  0
  6  7  2  0  0  0  0
  8 11  1  0  0  0  0
  8  7  1  0  0  0  0
  9  8  2  0  0  0  0
 10  9  1  0  0  0  0
 10  5  2  0  0  0  0
 11 12  1  0  0  0  0
 13 14  1  0  0  0  0
 14 15  1  6  0  0  0
 14 17  1  0  0  0  0
 15 16  1  0  0  0  0
 17 18  1  0  0  0  0
 18 20  1  0  0  0  0
 20 19  1  0  0  0  0
M  END
>  <MODEL>
1

>  <REMARK>
 VINA RESULT:      -2.7      0.000      0.000
  Name = orig_f12_ligand
  12 active torsions:
  status: ('A' for Active; 'I' for Inactive)
    1  A    between atoms: C_1  and  C_2
    2  A    between atoms: C_2  and  C_3
    3  A    between atoms: C_3  and  C_4
    4  A    between atoms: C_4  and  C_5
    5  A    between atoms: C_5  and  C_6
    6  A    between atoms: C_5  and  O_8
    7  A    between atoms: C_6  and  C_7
    8  A    between atoms: O_8  and  C_9
    9  A    between atoms: C_9  and  C_11
   10  A    between atoms: C_12  and  C_13
   11  A    between atoms: C_16  and  O_17
   12  A    between atoms: O_17  and  C_18
                            x       y       z     vdW  Elec       q    Type
                         _______ _______ _______ _____ _____    ______ ____

>  <TORSDO>
F 9

$$$$
orig_f12_ligand
 OpenBabel10092621033D

 20 20  0  0  1  0  0  0  0  0999 V2000
   -3.4230    1.6340    0.8910 C   0  0  0  0  0  0  0  0  0  0  0  0
   -3.0150    1.5640    2.0290 O   0  0  0  0  0  0  0  0  0  0  0  0
   -4.0070    0.5100    0.1470 C   0  0  0  0  0  3  0  0  0  0  0  0
   -5.0980   -0.0980    0.6270 C   0  0  0  0  0  3  0  0  0  0  0  0
   -5.6720   -1.3030    0.0050 C   0  0  0  0  0  0  0  0  0  0  0  0
   -6.6860   -2.0210    0.5980 C   0  0  0  0  0  3  0  0  0  0  0  0
   -7.2270   -3.1280   -0.0330 C   0  0  0  0  0  3  0  0  0  0  0  0
   -6.7470   -3.5240   -1.2520 C   0  0  0  0  0  0  0  0  0  0  0  0
   -5.7320   -2.8080   -1.8570 C   0  0  0  0  0  3  0  0  0  0  0  0
   -5.1860   -1.7020   -1.2160 C   0  0  0  0  0  3  0  0  0  0  0  0
   -7.2530   -4.5960   -1.9280 O   0  0  0  0  0  0  0  0  0  0  0  0
   -6.6970   -4.9680   -3.1830 C   0  0  0  0  0  1  0  0  0  0  0  0
   -3.3410    2.7370    0.1630 O   0  0  0  0  0  0  0  0  0  0  0  0
   -4.0210    2.8000   -1.0680 C   0  0  1  0  0  3  0  0  0  0  0  0
   -5.2300    3.7120   -0.9400 C   0  0  0  0  0  2  0  0  0  0  0  0
   -6.5600    3.0700   -1.2850 C   0  0  0  0  0  1  0  0  0  0  0  0
   -3.0640    3.3120   -2.1230 C   0  0  0  0  0  2  0  0  0  0  0  0
   -3.1780    2.6100   -3.4370 C   0  0  0  0  0  2  0  0  0  0  0  0
   -4.8120    0.8450   -4.1020 C   0  0  0  0  0  1  0  0  0  0  0  0
   -3.5970    1.1770   -3.2690 C   0  0  0  0  0  2  0  0  0  0  0  0
  1  2  2  0  0  0  0
  3  4  2  0  0  0  0
  3  1  1  0  0  0  0
  5  6  1  0  0  0  0
  5  4  1  0  0  0  0
  7  6  2  0  0  0  0
  8  7  1  0  0  0  0
  9  8  2  0  0  0  0
  9 10  1  0  0  0  0
 10  5  2  0  0  0  0
 11  8  1  0  0  0  0
 12 11  1  0  0  0  0
 13  1  1  0  0  0  0
 14 17  1  6  0  0  0
 14 15  1  0  0  0  0
 14 13  1  0  0  0  0
 16 15  1  0  0  0  0
 18 20  1  0  0  0  0
 18 17  1  0  0  0  0
 19 20  1  0  0  0  0
M  END
>  <MODEL>
2

>  <REMARK>
 VINA RESULT:      -2.7      2.525      7.320
  Name = orig_f12_ligand
  12 active torsions:
  status: ('A' for Active; 'I' for Inactive)
    1  A    between atoms: C_1  and  C_2
    2  A    between atoms: C_2  and  C_3
    3  A    between atoms: C_3  and  C_4
    4  A    between atoms: C_4  and  C_5
    5  A    between atoms: C_5  and  C_6
    6  A    between atoms: C_5  and  O_8
    7  A    between atoms: C_6  and  C_7
    8  A    between atoms: O_8  and  C_9
    9  A    between atoms: C_9  and  C_11
   10  A    between atoms: C_12  and  C_13
   11  A    between atoms: C_16  and  O_17
   12  A    between atoms: O_17  and  C_18
                            x       y       z     vdW  Elec       q    Type
                         _______ _______ _______ _____ _____    ______ ____

>  <TORSDO>
F 9

$$$$
orig_f12_ligand
 OpenBabel10092621033D

 20 20  0  0  1  0  0  0  0  0999 V2000
   -5.7830   -2.2110   -2.8380 C   0  0  0  0  0  0  0  0  0  0  0  0
   -5.6510   -3.3470   -3.2390 O   0  0  0  0  0  0  0  0  0  0  0  0
   -5.1090   -1.6640   -1.6530 C   0  0  0  0  0  3  0  0  0  0  0  0
   -5.8400   -1.1130   -0.6780 C   0  0  0  0  0  3  0  0  0  0  0  0
   -5.2330   -0.4390    0.4830 C   0  0  0  0  0  0  0  0  0  0  0  0
   -5.5310   -0.8010    1.7770 C   0  0  0  0  0  3  0  0  0  0  0  0
   -4.9140   -0.1700    2.8440 C   0  0  0  0  0  3  0  0  0  0  0  0
   -4.0060    0.8290    2.6160 C   0  0  0  0  0  0  0  0  0  0  0  0
   -3.6980    1.1970    1.3210 C   0  0  0  0  0  3  0  0  0  0  0  0
   -4.3270    0.5670    0.2530 C   0  0  0  0  0  3  0  0  0  0  0  0
   -3.3550    1.4740    3.6280 O   0  0  0  0  0  0  0  0  0  0  0  0
   -3.3680    0.9260    4.9400 C   0  0  0  0  0  1  0  0  0  0  0  0
   -6.6020   -1.3380   -3.4050 O   0  0  0  0  0  0  0  0  0  0  0  0
   -6.0760   -0.3840   -4.2970 C   0  0  1  0  0  3  0  0  0  0  0  0
   -6.5500   -0.6890   -5.7090 C   0  0  0  0  0  2  0  0  0  0  0  0
   -6.3510    0.4350   -6.7110 C   0  0  0  0  0  1  0  0  0  0  0  0
   -6.5320    0.9910   -3.8570 C   0  0  0  0  0  2  0  0  0  0  0  0
   -5.4720    1.7900   -3.1730 C   0  0  0  0  0  2  0  0  0  0  0  0
   -3.0330    1.2870   -3.0010 C   0  0  0  0  0  1  0  0  0  0  0  0
   -4.1620    1.7230   -3.9050 C   0  0  0  0  0  2  0  0  0  0  0  0
  1  3  1  0  0  0  0
  2  1  2  0  0  0  0
  3  4  2  0  0  0  0
  4  5  1  0  0  0  0
  5  6  1  0  0  0  0
  6  7  2  0  0  0  0
  8  7  1  0  0  0  0
  8 11  1  0  0  0  0
  9  8  2  0  0  0  0
 10  5  2  0  0  0  0
 10  9  1  0  0  0  0
 11 12  1  0  0  0  0
 13  1  1  0  0  0  0
 14 15  1  6  0  0  0
 14 17  1  0  0  0  0
 14 13  1  0  0  0  0
 16 15  1  0  0  0  0
 17 18  1  0  0  0  0
 20 18  1  0  0  0  0
 20 19  1  0  0  0  0
M  END
>  <MODEL>
3

>  <REMARK>
 VINA RESULT:      -2.7      2.766      5.373
  Name = orig_f12_ligand
  12 active torsions:
  status: ('A' for Active; 'I' for Inactive)
    1  A    between atoms: C_1  and  C_2
    2  A    between atoms: C_2  and  C_3
    3  A    between atoms: C_3  and  C_4
    4  A    between atoms: C_4  and  C_5
    5  A    between atoms: C_5  and  C_6
    6  A    between atoms: C_5  and  O_8
    7  A    between atoms: C_6  and  C_7
    8  A    between atoms: O_8  and  C_9
    9  A    between atoms: C_9  and  C_11
   10  A    between atoms: C_12  and  C_13
   11  A    between atoms: C_16  and  O_17
   12  A    between atoms: O_17  and  C_18
                            x       y       z     vdW  Elec       q    Type
                         _______ _______ _______ _____ _____    ______ ____

>  <TORSDO>
F 9

$$$$
orig_f12_ligand
 OpenBabel10092621033D

 20 20  0  0  1  0  0  0  0  0999 V2000
   -6.5410   -1.3060   -4.5180 C   0  0  0  0  0  0  0  0  0  0  0  0
   -7.6810   -1.6830   -4.6780 O   0  0  0  0  0  0  0  0  0  0  0  0
   -5.9470   -0.1460   -5.1960 C   0  0  0  0  0  3  0  0  0  0  0  0
   -5.1280    0.6620   -4.5140 C   0  0  0  0  0  3  0  0  0  0  0  0
   -4.5880    1.9080   -5.0860 C   0  0  0  0  0  0  0  0  0  0  0  0
   -4.8450    2.2880   -6.3840 C   0  0  0  0  0  3  0  0  0  0  0  0
   -4.3520    3.4840   -6.8780 C   0  0  0  0  0  3  0  0  0  0  0  0
   -3.5930    4.2950   -6.0770 C   0  0  0  0  0  0  0  0  0  0  0  0
   -3.3320    3.9230   -4.7720 C   0  0  0  0  0  3  0  0  0  0  0  0
   -3.8230    2.7180   -4.2830 C   0  0  0  0  0  3  0  0  0  0  0  0
   -3.0950    5.4920   -6.5040 O   0  0  0  0  0  0  0  0  0  0  0  0
   -1.7090    5.7740   -6.3580 C   0  0  0  0  0  1  0  0  0  0  0  0
   -5.6760   -1.9390   -3.7400 O   0  0  0  0  0  0  0  0  0  0  0  0
   -6.1580   -2.7650   -2.7070 C   0  0  1  0  0  3  0  0  0  0  0  0
   -5.2710   -3.9920   -2.5770 C   0  0  0  0  0  2  0  0  0  0  0  0
   -5.9010   -5.2930   -3.0420 C   0  0  0  0  0  1  0  0  0  0  0  0
   -6.1740   -1.9680   -1.4200 C   0  0  0  0  0  2  0  0  0  0  0  0
   -4.8920   -1.2590   -1.1310 C   0  0  0  0  0  2  0  0  0  0  0  0
   -6.5490    0.6070   -1.0940 C   0  0  0  0  0  1  0  0  0  0  0  0
   -5.1090    0.2070   -0.8810 C   0  0  0  0  0  2  0  0  0  0  0  0
  1 13  1  0  0  0  0
  2  1  2  0  0  0  0
  3  1  1  0  0  0  0
  3  4  2  0  0  0  0
  5  4  1  0  0  0  0
  5 10  1  0  0  0  0
  6  5  2  0  0  0  0
  7  6  1  0  0  0  0
  7  8  2  0  0  0  0
  8  9  1  0  0  0  0
  9 10  2  0  0  0  0
 11 12  1  0  0  0  0
 11  8  1  0  0  0  0
 13 14  1  0  0  0  0
 14 15  1  1  0  0  0
 14 17  1  0  0  0  0
 16 15  1  0  0  0  0
 17 18  1  0  0  0  0
 18 20  1  0  0  0  0
 19 20  1  0  0  0  0
M  END
>  <MODEL>
4

>  <REMARK>
 VINA RESULT:      -2.6      1.415      1.981
  Name = orig_f12_ligand
  12 active torsions:
  status: ('A' for Active; 'I' for Inactive)
    1  A    between atoms: C_1  and  C_2
    2  A    between atoms: C_2  and  C_3
    3  A    between atoms: C_3  and  C_4
    4  A    between atoms: C_4  and  C_5
    5  A    between atoms: C_5  and  C_6
    6  A    between atoms: C_5  and  O_8
    7  A    between atoms: C_6  and  C_7
    8  A    between atoms: O_8  and  C_9
    9  A    between atoms: C_9  and  C_11
   10  A    between atoms: C_12  and  C_13
   11  A    between atoms: C_16  and  O_17
   12  A    between atoms: O_17  and  C_18
                            x       y       z     vdW  Elec       q    Type
                         _______ _______ _______ _____ _____    ______ ____

>  <TORSDO>
F 9

$$$$
orig_f12_ligand
 OpenBabel10092621033D

 20 20  0  0  1  0  0  0  0  0999 V2000
   -5.4890    0.1780   -4.8520 C   0  0  0  0  0  0  0  0  0  0  0  0
   -5.6550   -0.8100   -5.5330 O   0  0  0  0  0  0  0  0  0  0  0  0
   -4.8820    0.1730   -3.5140 C   0  0  0  0  0  3  0  0  0  0  0  0
   -5.6360    0.4770   -2.4510 C   0  0  0  0  0  3  0  0  0  0  0  0
   -5.0760    0.6090   -1.0950 C   0  0  0  0  0  0  0  0  0  0  0  0
   -5.5770   -0.0960   -0.0250 C   0  0  0  0  0  3  0  0  0  0  0  0
   -5.0030    0.0240    1.2290 C   0  0  0  0  0  3  0  0  0  0  0  0
   -3.9330    0.8590    1.4150 C   0  0  0  0  0  0  0  0  0  0  0  0
   -3.4210    1.5690    0.3460 C   0  0  0  0  0  3  0  0  0  0  0  0
   -4.0060    1.4510   -0.9090 C   0  0  0  0  0  3  0  0  0  0  0  0
   -3.3160    1.0040    2.6240 O   0  0  0  0  0  0  0  0  0  0  0  0
   -3.7690    0.2540    3.7440 C   0  0  0  0  0  1  0  0  0  0  0  0
   -5.8870    1.3850   -5.2250 O   0  0  0  0  0  0  0  0  0  0  0  0
   -4.9220    2.3480   -5.5750 C   0  0  1  0  0  3  0  0  0  0  0  0
   -4.9510    2.5780   -7.0780 C   0  0  0  0  0  2  0  0  0  0  0  0
   -3.9840    3.6320   -7.5860 C   0  0  0  0  0  1  0  0  0  0  0  0
   -5.2220    3.6280   -4.8250 C   0  0  0  0  0  2  0  0  0  0  0  0
   -4.2570    3.9250   -3.7230 C   0  0  0  0  0  2  0  0  0  0  0  0
   -1.8920    3.7330   -2.9490 C   0  0  0  0  0  1  0  0  0  0  0  0
   -2.9130    3.3040   -3.9760 C   0  0  0  0  0  2  0  0  0  0  0  0
  1  3  1  0  0  0  0
  2  1  2  0  0  0  0
  3  4  2  0  0  0  0
  4  5  1  0  0  0  0
  5 10  2  0  0  0  0
  5  6  1  0  0  0  0
  6  7  2  0  0  0  0
  7  8  1  0  0  0  0
  8 11  1  0  0  0  0
  9  8  2  0  0  0  0
 10  9  1  0  0  0  0
 11 12  1  0  0  0  0
 13  1  1  0  0  0  0
 14 15  1  6  0  0  0
 14 13  1  0  0  0  0
 14 17  1  0  0  0  0
 16 15  1  0  0  0  0
 17 18  1  0  0  0  0
 20 18  1  0  0  0  0
 20 19  1  0  0  0  0
M  END
>  <MODEL>
5

>  <REMARK>
 VINA RESULT:      -2.6      2.764      5.858
  Name = orig_f12_ligand
  12 active torsions:
  status: ('A' for Active; 'I' for Inactive)
    1  A    between atoms: C_1  and  C_2
    2  A    between atoms: C_2  and  C_3
    3  A    between atoms: C_3  and  C_4
    4  A    between atoms: C_4  and  C_5
    5  A    between atoms: C_5  and  C_6
    6  A    between atoms: C_5  and  O_8
    7  A    between atoms: C_6  and  C_7
    8  A    between atoms: O_8  and  C_9
    9  A    between atoms: C_9  and  C_11
   10  A    between atoms: C_12  and  C_13
   11  A    between atoms: C_16  and  O_17
   12  A    between atoms: O_17  and  C_18
                            x       y       z     vdW  Elec       q    Type
                         _______ _______ _______ _____ _____    ______ ____

>  <TORSDO>
F 9

$$$$
orig_f12_ligand
 OpenBabel10092621033D

 20 20  0  0  1  0  0  0  0  0999 V2000
   -5.3070    0.0130   -4.2370 C   0  0  0  0  0  0  0  0  0  0  0  0
   -4.7780    0.8670   -4.9130 O   0  0  0  0  0  0  0  0  0  0  0  0
   -5.5680    0.1360   -2.7960 C   0  0  0  0  0  3  0  0  0  0  0  0
   -4.6370   -0.2670   -1.9250 C   0  0  0  0  0  3  0  0  0  0  0  0
   -4.8690   -0.2850   -0.4700 C   0  0  0  0  0  0  0  0  0  0  0  0
   -5.7020   -1.2050    0.1260 C   0  0  0  0  0  3  0  0  0  0  0  0
   -5.8690   -1.2180    1.5000 C   0  0  0  0  0  3  0  0  0  0  0  0
   -5.2110   -0.3030    2.2780 C   0  0  0  0  0  0  0  0  0  0  0  0
   -4.3700    0.6230    1.6890 C   0  0  0  0  0  3  0  0  0  0  0  0
   -4.2130    0.6360    0.3090 C   0  0  0  0  0  3  0  0  0  0  0  0
   -5.3240   -0.2790    3.6380 O   0  0  0  0  0  0  0  0  0  0  0  0
   -6.2690    0.5870    4.2540 C   0  0  0  0  0  1  0  0  0  0  0  0
   -5.6700   -1.1660   -4.7200 O   0  0  0  0  0  0  0  0  0  0  0  0
   -7.0310   -1.5230   -4.7100 C   0  0  1  0  0  3  0  0  0  0  0  0
   -7.6030   -1.3950   -6.1130 C   0  0  0  0  0  2  0  0  0  0  0  0
   -8.5390   -0.2190   -6.3220 C   0  0  0  0  0  1  0  0  0  0  0  0
   -7.1560   -2.9420   -4.2010 C   0  0  0  0  0  2  0  0  0  0  0  0
   -7.5240   -3.0370   -2.7560 C   0  0  0  0  0  2  0  0  0  0  0  0
   -5.2210   -3.9800   -2.5640 C   0  0  0  0  0  1  0  0  0  0  0  0
   -6.6270   -3.9850   -2.0120 C   0  0  0  0  0  2  0  0  0  0  0  0
  1  3  1  0  0  0  0
  2  1  2  0  0  0  0
  3  4  2  0  0  0  0
  4  5  1  0  0  0  0
  5  6  2  0  0  0  0
  5 10  1  0  0  0  0
  6  7  1  0  0  0  0
  7  8  2  0  0  0  0
  8 11  1  0  0  0  0
  9  8  1  0  0  0  0
 10  9  2  0  0  0  0
 11 12  1  0  0  0  0
 13 14  1  0  0  0  0
 13  1  1  0  0  0  0
 14 15  1  6  0  0  0
 14 17  1  0  0  0  0
 16 15  1  0  0  0  0
 17 18  1  0  0  0  0
 18 20  1  0  0  0  0
 19 20  1  0  0  0  0
M  END
>  <MODEL>
6

>  <REMARK>
 VINA RESULT:      -2.6      2.683      5.322
  Name = orig_f12_ligand
  12 active torsions:
  status: ('A' for Active; 'I' for Inactive)
    1  A    between atoms: C_1  and  C_2
    2  A    between atoms: C_2  and  C_3
    3  A    between atoms: C_3  and  C_4
    4  A    between atoms: C_4  and  C_5
    5  A    between atoms: C_5  and  C_6
    6  A    between atoms: C_5  and  O_8
    7  A    between atoms: C_6  and  C_7
    8  A    between atoms: O_8  and  C_9
    9  A    between atoms: C_9  and  C_11
   10  A    between atoms: C_12  and  C_13
   11  A    between atoms: C_16  and  O_17
   12  A    between atoms: O_17  and  C_18
                            x       y       z     vdW  Elec       q    Type
                         _______ _______ _______ _____ _____    ______ ____

>  <TORSDO>
F 9

$$$$
orig_f12_ligand
 OpenBabel10092621033D

 20 20  0  0  1  0  0  0  0  0999 V2000
   -3.7920    0.9910    0.1590 C   0  0  0  0  0  0  0  0  0  0  0  0
   -3.2850    0.9910    1.2590 O   0  0  0  0  0  0  0  0  0  0  0  0
   -4.8870    0.1020   -0.2510 C   0  0  0  0  0  3  0  0  0  0  0  0
   -4.6180   -0.9590   -1.0200 C   0  0  0  0  0  3  0  0  0  0  0  0
   -5.6730   -1.8270   -1.5700 C   0  0  0  0  0  0  0  0  0  0  0  0
   -6.9940   -1.4430   -1.6000 C   0  0  0  0  0  3  0  0  0  0  0  0
   -7.9560   -2.2700   -2.1570 C   0  0  0  0  0  3  0  0  0  0  0  0
   -7.5960   -3.4850   -2.6750 C   0  0  0  0  0  0  0  0  0  0  0  0
   -6.2720   -3.8790   -2.6520 C   0  0  0  0  0  3  0  0  0  0  0  0
   -5.3130   -3.0490   -2.0840 C   0  0  0  0  0  3  0  0  0  0  0  0
   -8.4970   -4.3330   -3.2520 O   0  0  0  0  0  0  0  0  0  0  0  0
   -8.0500   -5.3240   -4.1690 C   0  0  0  0  0  1  0  0  0  0  0  0
   -3.3740    1.7710   -0.8270 O   0  0  0  0  0  0  0  0  0  0  0  0
   -4.2690    2.6960   -1.3960 C   0  0  1  0  0  3  0  0  0  0  0  0
   -4.1420    4.0340   -0.6840 C   0  0  0  0  0  2  0  0  0  0  0  0
   -2.7230    4.5510   -0.5350 C   0  0  0  0  0  1  0  0  0  0  0  0
   -3.9500    2.8340   -2.8690 C   0  0  0  0  0  2  0  0  0  0  0  0
   -4.0430    1.5520   -3.6310 C   0  0  0  0  0  2  0  0  0  0  0  0
   -5.5590   -0.0510   -4.7980 C   0  0  0  0  0  1  0  0  0  0  0  0
   -5.4670    1.1880   -3.9390 C   0  0  0  0  0  2  0  0  0  0  0  0
  1  2  2  0  0  0  0
  3  1  1  0  0  0  0
  4  3  2  0  0  0  0
  5  4  1  0  0  0  0
  6  5  1  0  0  0  0
  7  6  2  0  0  0  0
  8  9  2  0  0  0  0
  8  7  1  0  0  0  0
  9 10  1  0  0  0  0
 10  5  2  0  0  0  0
 11  8  1  0  0  0  0
 12 11  1  0  0  0  0
 13  1  1  0  0  0  0
 14 17  1  6  0  0  0
 14 13  1  0  0  0  0
 14 15  1  0  0  0  0
 15 16  1  0  0  0  0
 18 17  1  0  0  0  0
 19 20  1  0  0  0  0
 20 18  1  0  0  0  0
M  END
>  <MODEL>
7

>  <REMARK>
 VINA RESULT:      -2.5      2.369      7.290
  Name = orig_f12_ligand
  12 active torsions:
  status: ('A' for Active; 'I' for Inactive)
    1  A    between atoms: C_1  and  C_2
    2  A    between atoms: C_2  and  C_3
    3  A    between atoms: C_3  and  C_4
    4  A    between atoms: C_4  and  C_5
    5  A    between atoms: C_5  and  C_6
    6  A    between atoms: C_5  and  O_8
    7  A    between atoms: C_6  and  C_7
    8  A    between atoms: O_8  and  C_9
    9  A    between atoms: C_9  and  C_11
   10  A    between atoms: C_12  and  C_13
   11  A    between atoms: C_16  and  O_17
   12  A    between atoms: O_17  and  C_18
                            x       y       z     vdW  Elec       q    Type
                         _______ _______ _______ _____ _____    ______ ____

>  <TORSDO>
F 9

$$$$
orig_f12_ligand
 OpenBabel10092621033D

 20 20  0  0  1  0  0  0  0  0999 V2000
   -6.1100   -2.7300   -3.2290 C   0  0  0  0  0  0  0  0  0  0  0  0
   -6.5250   -3.8660   -3.1590 O   0  0  0  0  0  0  0  0  0  0  0  0
   -5.4720   -2.0090   -2.1190 C   0  0  0  0  0  3  0  0  0  0  0  0
   -6.1100   -1.9130   -0.9470 C   0  0  0  0  0  3  0  0  0  0  0  0
   -5.5920   -1.1080    0.1730 C   0  0  0  0  0  0  0  0  0  0  0  0
   -4.7520   -0.0360   -0.0240 C   0  0  0  0  0  3  0  0  0  0  0  0
   -4.3140    0.7220    1.0480 C   0  0  0  0  0  3  0  0  0  0  0  0
   -4.7080    0.4000    2.3200 C   0  0  0  0  0  0  0  0  0  0  0  0
   -5.5530   -0.6730    2.5270 C   0  0  0  0  0  3  0  0  0  0  0  0
   -5.9840   -1.4350    1.4480 C   0  0  0  0  0  3  0  0  0  0  0  0
   -4.3210    1.1210    3.4130 O   0  0  0  0  0  0  0  0  0  0  0  0
   -3.2020    1.9940    3.3250 C   0  0  0  0  0  1  0  0  0  0  0  0
   -6.2310   -1.9850   -4.3170 O   0  0  0  0  0  0  0  0  0  0  0  0
   -6.4780   -0.6060   -4.1810 C   0  0  1  0  0  3  0  0  0  0  0  0
   -5.5860    0.1700   -5.1380 C   0  0  0  0  0  2  0  0  0  0  0  0
   -4.6280    1.1440   -4.4770 C   0  0  0  0  0  1  0  0  0  0  0  0
   -7.9400   -0.3470   -4.4720 C   0  0  0  0  0  2  0  0  0  0  0  0
   -8.5360    0.7500   -3.6500 C   0  0  0  0  0  2  0  0  0  0  0  0
   -7.3170    2.1820   -2.0090 C   0  0  0  0  0  1  0  0  0  0  0  0
   -7.9160    0.8230   -2.2840 C   0  0  0  0  0  2  0  0  0  0  0  0
  1  2  2  0  0  0  0
  1  3  1  0  0  0  0
  3  4  2  0  0  0  0
  4  5  1  0  0  0  0
  5 10  1  0  0  0  0
  6  5  2  0  0  0  0
  6  7  1  0  0  0  0
  7  8  2  0  0  0  0
  8  9  1  0  0  0  0
  8 11  1  0  0  0  0
 10  9  2  0  0  0  0
 12 11  1  0  0  0  0
 13 14  1  0  0  0  0
 13  1  1  0  0  0  0
 14 15  1  6  0  0  0
 15 16  1  0  0  0  0
 17 14  1  0  0  0  0
 17 18  1  0  0  0  0
 18 20  1  0  0  0  0
 20 19  1  0  0  0  0
M  END
>  <MODEL>
8

>  <REMARK>
 VINA RESULT:      -2.5      2.723      5.263
  Name = orig_f12_ligand
  12 active torsions:
  status: ('A' for Active; 'I' for Inactive)
    1  A    between atoms: C_1  and  C_2
    2  A    between atoms: C_2  and  C_3
    3  A    between atoms: C_3  and  C_4
    4  A    between atoms: C_4  and  C_5
    5  A    between atoms: C_5  and  C_6
    6  A    between atoms: C_5  and  O_8
    7  A    between atoms: C_6  and  C_7
    8  A    between atoms: O_8  and  C_9
    9  A    between atoms: C_9  and  C_11
   10  A    between atoms: C_12  and  C_13
   11  A    between atoms: C_16  and  O_17
   12  A    between atoms: O_17  and  C_18
                            x       y       z     vdW  Elec       q    Type
                         _______ _______ _______ _____ _____    ______ ____

>  <TORSDO>
F 9

$$$$
orig_f12_ligand
 OpenBabel10092621033D

 20 20  0  0  1  0  0  0  0  0999 V2000
   -6.0070   -0.8390   -4.1890 C   0  0  0  0  0  0  0  0  0  0  0  0
   -7.1240   -1.1040   -4.5760 O   0  0  0  0  0  0  0  0  0  0  0  0
   -5.3450    0.4580   -4.3860 C   0  0  0  0  0  3  0  0  0  0  0  0
   -4.2290    0.7350   -3.7020 C   0  0  0  0  0  3  0  0  0  0  0  0
   -3.5750    2.0540   -3.7550 C   0  0  0  0  0  0  0  0  0  0  0  0
   -2.5230    2.3820   -2.9310 C   0  0  0  0  0  3  0  0  0  0  0  0
   -1.9080    3.6190   -3.0320 C   0  0  0  0  0  3  0  0  0  0  0  0
   -2.3520    4.5310   -3.9510 C   0  0  0  0  0  0  0  0  0  0  0  0
   -3.4060    4.2100   -4.7850 C   0  0  0  0  0  3  0  0  0  0  0  0
   -4.0250    2.9710   -4.6730 C   0  0  0  0  0  3  0  0  0  0  0  0
   -1.7740    5.7570   -4.1070 O   0  0  0  0  0  0  0  0  0  0  0  0
   -1.3380    6.4850   -2.9650 C   0  0  0  0  0  1  0  0  0  0  0  0
   -5.2280   -1.7190   -3.5790 O   0  0  0  0  0  0  0  0  0  0  0  0
   -5.7420   -2.4560   -2.4960 C   0  0  1  0  0  3  0  0  0  0  0  0
   -5.2770   -3.9000   -2.5930 C   0  0  0  0  0  2  0  0  0  0  0  0
   -6.3870   -4.9350   -2.5890 C   0  0  0  0  0  1  0  0  0  0  0  0
   -5.2650   -1.8190   -1.2090 C   0  0  0  0  0  2  0  0  0  0  0  0
   -6.2850   -0.9470   -0.5510 C   0  0  0  0  0  2  0  0  0  0  0  0
   -4.2640    0.4280   -0.0460 C   0  0  0  0  0  1  0  0  0  0  0  0
   -5.7540    0.4340   -0.2900 C   0  0  0  0  0  2  0  0  0  0  0  0
  1 13  1  0  0  0  0
  2  1  2  0  0  0  0
  3  1  1  0  0  0  0
  3  4  2  0  0  0  0
  5  4  1  0  0  0  0
  5  6  1  0  0  0  0
  7  6  2  0  0  0  0
  8  7  1  0  0  0  0
  9 10  1  0  0  0  0
  9  8  2  0  0  0  0
 10  5  2  0  0  0  0
 11  8  1  0  0  0  0
 11 12  1  0  0  0  0
 13 14  1  0  0  0  0
 14 15  1  6  0  0  0
 14 17  1  0  0  0  0
 15 16  1  0  0  0  0
 17 18  1  0  0  0  0
 18 20  1  0  0  0  0
 20 19  1  0  0  0  0
M  END
>  <MODEL>
9

>  <REMARK>
 VINA RESULT:      -2.5      1.036      1.338
  Name = orig_f12_ligand
  12 active torsions:
  status: ('A' for Active; 'I' for Inactive)
    1  A    between atoms: C_1  and  C_2
    2  A    between atoms: C_2  and  C_3
    3  A    between atoms: C_3  and  C_4
    4  A    between atoms: C_4  and  C_5
    5  A    between atoms: C_5  and  C_6
    6  A    between atoms: C_5  and  O_8
    7  A    between atoms: C_6  and  C_7
    8  A    between atoms: O_8  and  C_9
    9  A    between atoms: C_9  and  C_11
   10  A    between atoms: C_12  and  C_13
   11  A    between atoms: C_16  and  O_17
   12  A    between atoms: O_17  and  C_18
                            x       y       z     vdW  Elec       q    Type
                         _______ _______ _______ _____ _____    ______ ____

>  <TORSDO>
F 9

$$$$
