bg33_3_pose0_reference


 20 20  0  0  0  0  0  0  0  0999 V2000
    6.4996    0.5370   -1.9666 C   0  0  0  0  0  0  0  0  0  0  0  0
    5.9954    1.4908   -2.5127 O   0  0  0  0  0  0  0  0  0  0  0  0
    7.0863    0.6310   -0.5185 C   0  0  0  0  0  0  0  0  0  0  0  0
    6.3769    1.2844    0.4298 C   0  0  0  0  0  0  0  0  0  0  0  0
    6.8915    1.4992    1.7580 C   0  0  0  0  0  0  0  0  0  0  0  0
    6.6728    2.6834    2.4261 C   0  0  0  0  0  0  0  0  0  0  0  0
    7.0999    2.8896    3.6878 C   0  0  0  0  0  0  0  0  0  0  0  0
    7.7817    1.8744    4.3188 C   0  0  0  0  0  0  0  0  0  0  0  0
    8.0468    0.7045    3.6768 C   0  0  0  0  0  0  0  0  0  0  0  0
    7.5901    0.5152    2.3901 C   0  0  0  0  0  0  0  0  0  0  0  0
    8.2766    2.0133    5.5672 O   0  0  0  0  0  0  0  0  0  0  0  0
    7.7746    3.1109    6.3095 C   0  0  0  0  0  0  0  0  0  0  0  0
    6.5606   -0.5417   -2.6235 O   0  0  0  0  0  0  0  0  0  0  0  0
    5.3319   -1.3265   -2.7450 C   0  0  0  0  0  0  0  0  0  0  0  0
    5.3403   -2.3612   -1.7194 C   0  0  0  0  0  0  0  0  0  0  0  0
    6.6295   -3.1235   -1.6504 C   0  0  0  0  0  0  0  0  0  0  0  0
    5.2293   -1.9571   -4.1221 C   0  0  0  0  0  0  0  0  0  0  0  0
    5.0129   -0.8170   -5.1414 C   0  0  0  0  0  0  0  0  0  0  0  0
    4.0360   -0.2597   -7.3390 C   0  0  0  0  0  0  0  0  0  0  0  0
    4.8365   -1.3121   -6.5414 C   0  0  0  0  0  0  0  0  0  0  0  0
 20 19  1  0
 18 20  1  0
 17 18  1  0
 14 17  1  0
 15 14  1  0
 16 15  1  0
 13 14  1  0
  1 13  1  0
  2  1  2  0
  3  1  1  0
  4  3  2  0
  5  4  1  0
  6  5  1  0
  7  6  2  0
  8  7  1  0
 11  8  1  0
 12 11  1  0
  9  8  2  0
 10  9  1  0
 10  5  2  0
M  END
> <structure>
bg33_3

> <pose>
0

> <is_reference>
1

> <rmsd_to_reference_A>
0.000

> <vina_score>


> <minimizedAffinity>
-4.16233

> <minimizedRMSD>
2.95452

> <CNNscore>
0.4451616406

> <CNNaffinity>
4.2204594612

> <CNN_VS>
1.8787866831

> <CNNaffinity_variance>
0.3281042874

$$$$
bg33_3_pose1


 20 20  0  0  0  0  0  0  0  0999 V2000
    5.2556   -2.1854   -2.5785 C   0  0  0  0  0  0  0  0  0  0  0  0
    4.3257   -2.5853   -3.2393 O   0  0  0  0  0  0  0  0  0  0  0  0
    5.4368   -2.5932   -1.0779 C   0  0  0  0  0  0  0  0  0  0  0  0
    6.6059   -3.1537   -0.6926 C   0  0  0  0  0  0  0  0  0  0  0  0
    6.8141   -3.6456    0.6452 C   0  0  0  0  0  0  0  0  0  0  0  0
    6.1377   -4.7512    1.1129 C   0  0  0  0  0  0  0  0  0  0  0  0
    6.3524   -5.2604    2.3426 C   0  0  0  0  0  0  0  0  0  0  0  0
    7.2801   -4.6436    3.1506 C   0  0  0  0  0  0  0  0  0  0  0  0
    7.9403   -3.5293    2.7348 C   0  0  0  0  0  0  0  0  0  0  0  0
    7.7096   -3.0340    1.4686 C   0  0  0  0  0  0  0  0  0  0  0  0
    7.5259   -5.0672    4.4082 O   0  0  0  0  0  0  0  0  0  0  0  0
    7.8525   -4.0557    5.3455 C   0  0  0  0  0  0  0  0  0  0  0  0
    6.0698   -1.3973   -3.1401 O   0  0  0  0  0  0  0  0  0  0  0  0
    6.1147   -0.0176   -2.6549 C   0  0  0  0  0  0  0  0  0  0  0  0
    5.6431    0.8621   -3.7163 C   0  0  0  0  0  0  0  0  0  0  0  0
    5.6333    2.3107   -3.3311 C   0  0  0  0  0  0  0  0  0  0  0  0
    7.5256    0.3650   -2.2483 C   0  0  0  0  0  0  0  0  0  0  0  0
    7.5678    0.4197   -0.7047 C   0  0  0  0  0  0  0  0  0  0  0  0
    6.1840    2.1082    0.4477 C   0  0  0  0  0  0  0  0  0  0  0  0
    6.2245    0.6627   -0.0937 C   0  0  0  0  0  0  0  0  0  0  0  0
 20 19  1  0
 18 20  1  0
 17 18  1  0
 14 17  1  0
 15 14  1  0
 16 15  1  0
 13 14  1  0
  1 13  1  0
  2  1  2  0
  3  1  1  0
  4  3  2  0
  5  4  1  0
  6  5  1  0
  7  6  2  0
  8  7  1  0
 11  8  1  0
 12 11  1  0
  9  8  2  0
 10  9  1  0
 10  5  2  0
M  END
> <structure>
bg33_3

> <pose>
1

> <is_reference>
0

> <rmsd_to_reference_A>
5.935

> <vina_score>
-4.2

> <minimizedAffinity>
-4.13631

> <minimizedRMSD>
0.07234

> <CNNscore>
0.2168618739

> <CNNaffinity>
3.9587061405

> <CNN_VS>
0.8584924340

> <CNNaffinity_variance>
0.4988118708

$$$$
bg33_3_pose2


 20 20  0  0  0  0  0  0  0  0999 V2000
    8.2055   -1.4244    1.6639 C   0  0  0  0  0  0  0  0  0  0  0  0
    8.0583   -0.4008    2.2909 O   0  0  0  0  0  0  0  0  0  0  0  0
    7.7510   -1.5490    0.1714 C   0  0  0  0  0  0  0  0  0  0  0  0
    6.5828   -0.9804   -0.2022 C   0  0  0  0  0  0  0  0  0  0  0  0
    6.0478   -1.1348   -1.5313 C   0  0  0  0  0  0  0  0  0  0  0  0
    5.4034   -2.2904   -1.9128 C   0  0  0  0  0  0  0  0  0  0  0  0
    4.8508   -2.4394   -3.1324 C   0  0  0  0  0  0  0  0  0  0  0  0
    4.9440   -1.3935   -4.0223 C   0  0  0  0  0  0  0  0  0  0  0  0
    5.6041   -0.2505   -3.6924 C   0  0  0  0  0  0  0  0  0  0  0  0
    6.1525   -0.1197   -2.4340 C   0  0  0  0  0  0  0  0  0  0  0  0
    4.4513   -1.4750   -5.2766 O   0  0  0  0  0  0  0  0  0  0  0  0
    5.3637   -1.9097   -6.2689 C   0  0  0  0  0  0  0  0  0  0  0  0
    8.7202   -2.4067    2.2716 O   0  0  0  0  0  0  0  0  0  0  0  0
    7.8921   -3.0960    3.2611 C   0  0  0  0  0  0  0  0  0  0  0  0
    8.5523   -3.0115    4.5573 C   0  0  0  0  0  0  0  0  0  0  0  0
    7.8019   -3.7032    5.6552 C   0  0  0  0  0  0  0  0  0  0  0  0
    7.6862   -4.5487    2.8728 C   0  0  0  0  0  0  0  0  0  0  0  0
    6.1886   -4.7348    2.5418 C   0  0  0  0  0  0  0  0  0  0  0  0
    7.1017   -5.2282    0.3017 C   0  0  0  0  0  0  0  0  0  0  0  0
    5.9001   -4.6459    1.0769 C   0  0  0  0  0  0  0  0  0  0  0  0
 20 19  1  0
 18 20  1  0
 17 18  1  0
 14 17  1  0
 15 14  1  0
 16 15  1  0
 13 14  1  0
  1 13  1  0
  2  1  2  0
  3  1  1  0
  4  3  2  0
  5  4  1  0
  6  5  1  0
  7  6  2  0
  8  7  1  0
 11  8  1  0
 12 11  1  0
  9  8  2  0
 10  9  1  0
 10  5  2  0
M  END
> <structure>
bg33_3

> <pose>
2

> <is_reference>
0

> <rmsd_to_reference_A>
9.249

> <vina_score>
-4.1

> <minimizedAffinity>
-4.21215

> <minimizedRMSD>
0.24595

> <CNNscore>
0.2023460716

> <CNNaffinity>
3.8470718861

> <CNN_VS>
0.7784398794

> <CNNaffinity_variance>
0.7886734605

$$$$
bg33_3_pose3


 20 20  0  0  0  0  0  0  0  0999 V2000
    8.2914    0.1830    1.8466 C   0  0  0  0  0  0  0  0  0  0  0  0
    9.4203   -0.0192    2.2289 O   0  0  0  0  0  0  0  0  0  0  0  0
    7.8547   -0.1100    0.3724 C   0  0  0  0  0  0  0  0  0  0  0  0
    6.5513   -0.3709    0.1196 C   0  0  0  0  0  0  0  0  0  0  0  0
    6.0873   -0.7459   -1.1910 C   0  0  0  0  0  0  0  0  0  0  0  0
    5.5499   -1.9905   -1.4297 C   0  0  0  0  0  0  0  0  0  0  0  0
    5.0620   -2.3476   -2.6343 C   0  0  0  0  0  0  0  0  0  0  0  0
    5.1121   -1.4275   -3.6562 C   0  0  0  0  0  0  0  0  0  0  0  0
    5.6678   -0.2002   -3.4665 C   0  0  0  0  0  0  0  0  0  0  0  0
    6.1505    0.1440   -2.2217 C   0  0  0  0  0  0  0  0  0  0  0  0
    4.6795   -1.7178   -4.9021 O   0  0  0  0  0  0  0  0  0  0  0  0
    4.9230   -0.7250   -5.8841 C   0  0  0  0  0  0  0  0  0  0  0  0
    7.4750    0.6698    2.6814 O   0  0  0  0  0  0  0  0  0  0  0  0
    7.8536    1.9170    3.3450 C   0  0  0  0  0  0  0  0  0  0  0  0
    6.9602    2.1290    4.4758 C   0  0  0  0  0  0  0  0  0  0  0  0
    7.6422    2.7213    5.6730 C   0  0  0  0  0  0  0  0  0  0  0  0
    7.7654    3.0878    2.3827 C   0  0  0  0  0  0  0  0  0  0  0  0
    6.2846    3.5205    2.3109 C   0  0  0  0  0  0  0  0  0  0  0  0
    6.5455    3.3774   -0.1402 C   0  0  0  0  0  0  0  0  0  0  0  0
    5.6086    3.0791    1.0513 C   0  0  0  0  0  0  0  0  0  0  0  0
 20 19  1  0
 18 20  1  0
 17 18  1  0
 14 17  1  0
 15 14  1  0
 16 15  1  0
 13 14  1  0
  1 13  1  0
  2  1  2  0
  3  1  1  0
  4  3  2  0
  5  4  1  0
  6  5  1  0
  7  6  2  0
  8  7  1  0
 11  8  1  0
 12 11  1  0
  9  8  2  0
 10  9  1  0
 10  5  2  0
M  END
> <structure>
bg33_3

> <pose>
3

> <is_reference>
0

> <rmsd_to_reference_A>
7.860

> <vina_score>
-4.0

> <minimizedAffinity>
-4.08448

> <minimizedRMSD>
0.14970

> <CNNscore>
0.3353489041

> <CNNaffinity>
4.1158547401

> <CNN_VS>
1.3802473545

> <CNNaffinity_variance>
0.6266734004

$$$$
bg33_3_pose4


 20 20  0  0  0  0  0  0  0  0999 V2000
    6.5047   -4.7284    0.9129 C   0  0  0  0  0  0  0  0  0  0  0  0
    6.4359   -5.9332    0.8331 O   0  0  0  0  0  0  0  0  0  0  0  0
    6.5962   -3.8214   -0.3588 C   0  0  0  0  0  0  0  0  0  0  0  0
    5.7022   -2.8163   -0.5081 C   0  0  0  0  0  0  0  0  0  0  0  0
    5.6585   -2.0012   -1.6946 C   0  0  0  0  0  0  0  0  0  0  0  0
    5.0557   -2.4507   -2.8478 C   0  0  0  0  0  0  0  0  0  0  0  0
    4.9568   -1.6872   -3.9553 C   0  0  0  0  0  0  0  0  0  0  0  0
    5.4856   -0.4178   -3.9199 C   0  0  0  0  0  0  0  0  0  0  0  0
    6.1189    0.0470   -2.8087 C   0  0  0  0  0  0  0  0  0  0  0  0
    6.1982   -0.7501   -1.6871 C   0  0  0  0  0  0  0  0  0  0  0  0
    5.4624    0.3968   -4.9964 O   0  0  0  0  0  0  0  0  0  0  0  0
    5.1124   -0.2177   -6.2242 C   0  0  0  0  0  0  0  0  0  0  0  0
    6.5264   -4.2252    2.0726 O   0  0  0  0  0  0  0  0  0  0  0  0
    7.7589   -4.3729    2.8484 C   0  0  0  0  0  0  0  0  0  0  0  0
    7.4389   -4.2110    4.2605 C   0  0  0  0  0  0  0  0  0  0  0  0
    5.9837   -4.3986    4.5694 C   0  0  0  0  0  0  0  0  0  0  0  0
    8.7884   -3.3407    2.4243 C   0  0  0  0  0  0  0  0  0  0  0  0
    8.2020   -1.9444    2.7298 C   0  0  0  0  0  0  0  0  0  0  0  0
    7.7046    0.3563    1.9867 C   0  0  0  0  0  0  0  0  0  0  0  0
    8.2463   -1.0238    1.5523 C   0  0  0  0  0  0  0  0  0  0  0  0
 20 19  1  0
 18 20  1  0
 17 18  1  0
 14 17  1  0
 15 14  1  0
 16 15  1  0
 13 14  1  0
  1 13  1  0
  2  1  2  0
  3  1  1  0
  4  3  2  0
  5  4  1  0
  6  5  1  0
  7  6  2  0
  8  7  1  0
 11  8  1  0
 12 11  1  0
  9  8  2  0
 10  9  1  0
 10  5  2  0
M  END
> <structure>
bg33_3

> <pose>
4

> <is_reference>
0

> <rmsd_to_reference_A>
8.987

> <vina_score>
-4.0

> <minimizedAffinity>
-4.14701

> <minimizedRMSD>
0.17798

> <CNNscore>
0.1770843714

> <CNNaffinity>
3.8784084320

> <CNN_VS>
0.6868055463

> <CNNaffinity_variance>
0.4410786629

$$$$
bg33_3_pose5


 20 20  0  0  0  0  0  0  0  0999 V2000
    8.0475   -2.5606    1.6024 C   0  0  0  0  0  0  0  0  0  0  0  0
    8.4268   -1.6483    2.2983 O   0  0  0  0  0  0  0  0  0  0  0  0
    7.6431   -2.3423    0.1059 C   0  0  0  0  0  0  0  0  0  0  0  0
    6.5033   -1.6675   -0.1686 C   0  0  0  0  0  0  0  0  0  0  0  0
    6.0112   -1.5107   -1.5132 C   0  0  0  0  0  0  0  0  0  0  0  0
    5.3288   -2.5245   -2.1468 C   0  0  0  0  0  0  0  0  0  0  0  0
    4.8149   -2.3848   -3.3858 C   0  0  0  0  0  0  0  0  0  0  0  0
    4.9900   -1.1822   -4.0306 C   0  0  0  0  0  0  0  0  0  0  0  0
    5.6891   -0.1708   -3.4487 C   0  0  0  0  0  0  0  0  0  0  0  0
    6.1958   -0.3356   -2.1777 C   0  0  0  0  0  0  0  0  0  0  0  0
    4.5404   -0.9727   -5.2866 O   0  0  0  0  0  0  0  0  0  0  0  0
    5.1443   -1.7622   -6.2959 C   0  0  0  0  0  0  0  0  0  0  0  0
    7.9636   -3.7024    2.1376 O   0  0  0  0  0  0  0  0  0  0  0  0
    6.6236   -4.2064    2.4430 C   0  0  0  0  0  0  0  0  0  0  0  0
    6.6494   -4.8185    3.7647 C   0  0  0  0  0  0  0  0  0  0  0  0
    6.6598   -3.8223    4.8847 C   0  0  0  0  0  0  0  0  0  0  0  0
    6.1805   -5.2222    1.4053 C   0  0  0  0  0  0  0  0  0  0  0  0
    7.3294   -6.2402    1.2309 C   0  0  0  0  0  0  0  0  0  0  0  0
    7.8384   -5.7283   -1.1298 C   0  0  0  0  0  0  0  0  0  0  0  0
    7.3852   -6.8259   -0.1440 C   0  0  0  0  0  0  0  0  0  0  0  0
 20 19  1  0
 18 20  1  0
 17 18  1  0
 14 17  1  0
 15 14  1  0
 16 15  1  0
 13 14  1  0
  1 13  1  0
  2  1  2  0
  3  1  1  0
  4  3  2  0
  5  4  1  0
  6  5  1  0
  7  6  2  0
  8  7  1  0
 11  8  1  0
 12 11  1  0
  9  8  2  0
 10  9  1  0
 10  5  2  0
M  END
> <structure>
bg33_3

> <pose>
5

> <is_reference>
0

> <rmsd_to_reference_A>
9.432

> <vina_score>
-3.9

> <minimizedAffinity>
-4.24830

> <minimizedRMSD>
0.49984

> <CNNscore>
0.2320127934

> <CNNaffinity>
4.0522747040

> <CNN_VS>
0.9401795864

> <CNNaffinity_variance>
0.4345534742

$$$$
bg33_3_pose6


 20 20  0  0  0  0  0  0  0  0999 V2000
    8.0638    0.1247    1.4407 C   0  0  0  0  0  0  0  0  0  0  0  0
    8.5173   -0.8816    1.9333 O   0  0  0  0  0  0  0  0  0  0  0  0
    7.3697    0.1150    0.0373 C   0  0  0  0  0  0  0  0  0  0  0  0
    6.6936   -0.9921   -0.3465 C   0  0  0  0  0  0  0  0  0  0  0  0
    6.1116   -1.1162   -1.6580 C   0  0  0  0  0  0  0  0  0  0  0  0
    5.4359   -2.2563   -2.0340 C   0  0  0  0  0  0  0  0  0  0  0  0
    4.8387   -2.3778   -3.2368 C   0  0  0  0  0  0  0  0  0  0  0  0
    4.9187   -1.3190   -4.1131 C   0  0  0  0  0  0  0  0  0  0  0  0
    5.6081   -0.1921   -3.7883 C   0  0  0  0  0  0  0  0  0  0  0  0
    6.2004   -0.0896   -2.5486 C   0  0  0  0  0  0  0  0  0  0  0  0
    4.3822   -1.3736   -5.3507 O   0  0  0  0  0  0  0  0  0  0  0  0
    5.2373   -1.8577   -6.3717 C   0  0  0  0  0  0  0  0  0  0  0  0
    8.1955    1.2004    2.0923 O   0  0  0  0  0  0  0  0  0  0  0  0
    7.0807    1.6101    2.9475 C   0  0  0  0  0  0  0  0  0  0  0  0
    6.8500    3.0357    2.7554 C   0  0  0  0  0  0  0  0  0  0  0  0
    5.9395    3.3436    1.6050 C   0  0  0  0  0  0  0  0  0  0  0  0
    7.3877    1.3229    4.4066 C   0  0  0  0  0  0  0  0  0  0  0  0
    6.7917    2.4762    5.2433 C   0  0  0  0  0  0  0  0  0  0  0  0
    9.1762    2.6944    5.8452 C   0  0  0  0  0  0  0  0  0  0  0  0
    7.7268    2.9745    6.2987 C   0  0  0  0  0  0  0  0  0  0  0  0
 20 19  1  0
 18 20  1  0
 17 18  1  0
 14 17  1  0
 15 14  1  0
 16 15  1  0
 13 14  1  0
  1 13  1  0
  2  1  2  0
  3  1  1  0
  4  3  2  0
  5  4  1  0
  6  5  1  0
  7  6  2  0
  8  7  1  0
 11  8  1  0
 12 11  1  0
  9  8  2  0
 10  9  1  0
 10  5  2  0
M  END
> <structure>
bg33_3

> <pose>
6

> <is_reference>
0

> <rmsd_to_reference_A>
8.777

> <vina_score>
-3.8

> <minimizedAffinity>
-4.40616

> <minimizedRMSD>
0.35536

> <CNNscore>
0.4448812306

> <CNNaffinity>
4.2483363152

> <CNN_VS>
1.8900051117

> <CNNaffinity_variance>
0.3634014130

$$$$
bg33_3_pose7


 20 20  0  0  0  0  0  0  0  0999 V2000
    8.7445   -3.1184    3.2381 C   0  0  0  0  0  0  0  0  0  0  0  0
    9.6178   -3.2663    4.0611 O   0  0  0  0  0  0  0  0  0  0  0  0
    8.2858   -1.6975    2.7681 C   0  0  0  0  0  0  0  0  0  0  0  0
    8.1365   -0.7236    3.6946 C   0  0  0  0  0  0  0  0  0  0  0  0
    7.6252    0.5804    3.3572 C   0  0  0  0  0  0  0  0  0  0  0  0
    7.3990    1.5325    4.3271 C   0  0  0  0  0  0  0  0  0  0  0  0
    6.9693    2.7749    4.0312 C   0  0  0  0  0  0  0  0  0  0  0  0
    6.7473    3.0912    2.7110 C   0  0  0  0  0  0  0  0  0  0  0  0
    6.9267    2.1652    1.7303 C   0  0  0  0  0  0  0  0  0  0  0  0
    7.3760    0.9042    2.0571 C   0  0  0  0  0  0  0  0  0  0  0  0
    6.2811    4.3010    2.3331 O   0  0  0  0  0  0  0  0  0  0  0  0
    7.1705    5.3886    2.5167 C   0  0  0  0  0  0  0  0  0  0  0  0
    8.1912   -4.1623    2.7852 O   0  0  0  0  0  0  0  0  0  0  0  0
    6.7305   -4.1694    2.7049 C   0  0  0  0  0  0  0  0  0  0  0  0
    6.2000   -4.6783    3.9623 C   0  0  0  0  0  0  0  0  0  0  0  0
    6.7072   -6.0448    4.3152 C   0  0  0  0  0  0  0  0  0  0  0  0
    6.2589   -5.0343    1.5501 C   0  0  0  0  0  0  0  0  0  0  0  0
    6.7995   -4.4074    0.2459 C   0  0  0  0  0  0  0  0  0  0  0  0
    6.3392   -2.9038   -1.6577 C   0  0  0  0  0  0  0  0  0  0  0  0
    6.0455   -3.1835   -0.1678 C   0  0  0  0  0  0  0  0  0  0  0  0
 20 19  1  0
 18 20  1  0
 17 18  1  0
 14 17  1  0
 15 14  1  0
 16 15  1  0
 13 14  1  0
  1 13  1  0
  2  1  2  0
  3  1  1  0
  4  3  2  0
  5  4  1  0
  6  5  1  0
  7  6  2  0
  8  7  1  0
 11  8  1  0
 12 11  1  0
  9  8  2  0
 10  9  1  0
 10  5  2  0
M  END
> <structure>
bg33_3

> <pose>
7

> <is_reference>
0

> <rmsd_to_reference_A>
7.440

> <vina_score>
-3.8

> <minimizedAffinity>
-4.13010

> <minimizedRMSD>
0.24354

> <CNNscore>
0.2743147016

> <CNNaffinity>
4.0828790665

> <CNN_VS>
1.1199938059

> <CNNaffinity_variance>
0.4166260660

$$$$
bg33_3_pose8


 20 20  0  0  0  0  0  0  0  0999 V2000
    6.5247   -4.8899    2.6898 C   0  0  0  0  0  0  0  0  0  0  0  0
    6.6635   -6.0181    3.1039 O   0  0  0  0  0  0  0  0  0  0  0  0
    6.1291   -4.6005    1.2032 C   0  0  0  0  0  0  0  0  0  0  0  0
    6.8853   -3.7386    0.4853 C   0  0  0  0  0  0  0  0  0  0  0  0
    6.5325   -3.3448   -0.8554 C   0  0  0  0  0  0  0  0  0  0  0  0
    7.2510   -3.7892   -1.9429 C   0  0  0  0  0  0  0  0  0  0  0  0
    6.9098   -3.4772   -3.2087 C   0  0  0  0  0  0  0  0  0  0  0  0
    5.8059   -2.6806   -3.4083 C   0  0  0  0  0  0  0  0  0  0  0  0
    5.0932   -2.1946   -2.3563 C   0  0  0  0  0  0  0  0  0  0  0  0
    5.4563   -2.5373   -1.0720 C   0  0  0  0  0  0  0  0  0  0  0  0
    5.4196   -2.2893   -4.6419 O   0  0  0  0  0  0  0  0  0  0  0  0
    5.0592   -0.9249   -4.7705 C   0  0  0  0  0  0  0  0  0  0  0  0
    6.7379   -3.9444    3.5007 O   0  0  0  0  0  0  0  0  0  0  0  0
    8.0561   -3.8838    4.1320 C   0  0  0  0  0  0  0  0  0  0  0  0
    7.8762   -3.6434    5.5580 C   0  0  0  0  0  0  0  0  0  0  0  0
    9.0786   -3.9993    6.3802 C   0  0  0  0  0  0  0  0  0  0  0  0
    8.8972   -2.7780    3.5188 C   0  0  0  0  0  0  0  0  0  0  0  0
    8.1073   -1.4584    3.6630 C   0  0  0  0  0  0  0  0  0  0  0  0
    9.2710   -1.1325    1.5109 C   0  0  0  0  0  0  0  0  0  0  0  0
    8.1325   -0.6251    2.4215 C   0  0  0  0  0  0  0  0  0  0  0  0
 20 19  1  0
 18 20  1  0
 17 18  1  0
 14 17  1  0
 15 14  1  0
 16 15  1  0
 13 14  1  0
  1 13  1  0
  2  1  2  0
  3  1  1  0
  4  3  2  0
  5  4  1  0
  6  5  1  0
  7  6  2  0
  8  7  1  0
 11  8  1  0
 12 11  1  0
  9  8  2  0
 10  9  1  0
 10  5  2  0
M  END
> <structure>
bg33_3

> <pose>
8

> <is_reference>
0

> <rmsd_to_reference_A>
9.740

> <vina_score>
-3.8

> <minimizedAffinity>
-3.92320

> <minimizedRMSD>
0.12789

> <CNNscore>
0.1570390463

> <CNNaffinity>
3.5273411274

> <CNN_VS>
0.5539302826

> <CNNaffinity_variance>
0.6121156216

$$$$
bg33_3_pose9


 20 20  0  0  0  0  0  0  0  0999 V2000
    6.2944    0.7411   -3.1235 C   0  0  0  0  0  0  0  0  0  0  0  0
    6.7191    1.4685   -3.9900 O   0  0  0  0  0  0  0  0  0  0  0  0
    6.6794    0.9388   -1.6191 C   0  0  0  0  0  0  0  0  0  0  0  0
    5.9361    1.7776   -0.8617 C   0  0  0  0  0  0  0  0  0  0  0  0
    6.2833    2.0885    0.5010 C   0  0  0  0  0  0  0  0  0  0  0  0
    6.9116    1.1644    1.3065 C   0  0  0  0  0  0  0  0  0  0  0  0
    7.2927    1.4482    2.5684 C   0  0  0  0  0  0  0  0  0  0  0  0
    7.0335    2.7080    3.0589 C   0  0  0  0  0  0  0  0  0  0  0  0
    6.3829    3.6334    2.3037 C   0  0  0  0  0  0  0  0  0  0  0  0
    6.0129    3.3208    1.0135 C   0  0  0  0  0  0  0  0  0  0  0  0
    7.3466    3.0600    4.3247 O   0  0  0  0  0  0  0  0  0  0  0  0
    6.7631    2.2711    5.3462 C   0  0  0  0  0  0  0  0  0  0  0  0
    5.5421   -0.2104   -3.4814 O   0  0  0  0  0  0  0  0  0  0  0  0
    6.0279   -1.5732   -3.2623 C   0  0  0  0  0  0  0  0  0  0  0  0
    6.3817   -2.1515   -4.5525 C   0  0  0  0  0  0  0  0  0  0  0  0
    6.5899   -3.6349   -4.5048 C   0  0  0  0  0  0  0  0  0  0  0  0
    4.9684   -2.4209   -2.5826 C   0  0  0  0  0  0  0  0  0  0  0  0
    5.2746   -2.4236   -1.0689 C   0  0  0  0  0  0  0  0  0  0  0  0
    6.4871   -3.9755    0.4206 C   0  0  0  0  0  0  0  0  0  0  0  0
    6.6271   -2.9761   -0.7482 C   0  0  0  0  0  0  0  0  0  0  0  0
 20 19  1  0
 18 20  1  0
 17 18  1  0
 14 17  1  0
 15 14  1  0
 16 15  1  0
 13 14  1  0
  1 13  1  0
  2  1  2  0
  3  1  1  0
  4  3  2  0
  5  4  1  0
  6  5  1  0
  7  6  2  0
  8  7  1  0
 11  8  1  0
 12 11  1  0
  9  8  2  0
 10  9  1  0
 10  5  2  0
M  END
> <structure>
bg33_3

> <pose>
9

> <is_reference>
0

> <rmsd_to_reference_A>
4.467

> <vina_score>
-3.7

> <minimizedAffinity>
-4.01572

> <minimizedRMSD>
0.29615

> <CNNscore>
0.2937828898

> <CNNaffinity>
4.0672969818

> <CNN_VS>
1.1949023008

> <CNNaffinity_variance>
0.6359868050

$$$$
