bg33_4_pose0_reference


 20 20  0  0  0  0  0  0  0  0999 V2000
   -0.8465   -2.9003    5.6603 C   0  0  0  0  0  0  0  0  0  0  0  0
   -0.4938   -3.8923    6.3674 O   0  0  0  0  0  0  0  0  0  0  0  0
    0.0692   -2.1854    4.7572 C   0  0  0  0  0  0  0  0  0  0  0  0
   -0.1233   -0.7748    4.5802 C   0  0  0  0  0  0  0  0  0  0  0  0
    0.7164    0.0077    3.5829 C   0  0  0  0  0  0  0  0  0  0  0  0
    2.0842    0.1338    3.6996 C   0  0  0  0  0  0  0  0  0  0  0  0
    2.8514    0.8769    2.7377 C   0  0  0  0  0  0  0  0  0  0  0  0
    2.2516    1.4911    1.6238 C   0  0  0  0  0  0  0  0  0  0  0  0
    0.8715    1.3340    1.5206 C   0  0  0  0  0  0  0  0  0  0  0  0
    0.1291    0.6038    2.4581 C   0  0  0  0  0  0  0  0  0  0  0  0
    2.9424    2.1677    0.6381 O   0  0  0  0  0  0  0  0  0  0  0  0
    4.2449    1.6717    0.2382 C   0  0  0  0  0  0  0  0  0  0  0  0
   -2.2550   -2.5010    5.5971 O   0  0  0  0  0  0  0  0  0  0  0  0
   -3.1272   -2.9195    6.5915 C   0  0  0  0  0  0  0  0  0  0  0  0
   -4.1233   -3.7911    5.7724 C   0  0  0  0  0  0  0  0  0  0  0  0
   -5.0186   -4.6729    6.7023 C   0  0  0  0  0  0  0  0  0  0  0  0
   -3.7752   -1.6357    7.2901 C   0  0  0  0  0  0  0  0  0  0  0  0
   -3.4218   -0.3874    6.5229 C   0  0  0  0  0  0  0  0  0  0  0  0
   -3.7227    2.1295    6.5591 C   0  0  0  0  0  0  0  0  0  0  0  0
   -4.3246    0.7899    6.8842 C   0  0  0  0  0  0  0  0  0  0  0  0
 20 19  1  0
 18 20  1  0
 17 18  1  0
 14 17  1  0
 15 14  1  0
 16 15  1  0
 13 14  1  0
  1 13  1  0
  2  1  2  0
  3  1  1  0
  4  3  2  0
  5  4  1  0
  6  5  1  0
  7  6  2  0
  8  7  1  0
 11  8  1  0
 12 11  1  0
  9  8  2  0
 10  9  1  0
 10  5  2  0
M  END
> <structure>
bg33_4

> <pose>
0

> <is_reference>
1

> <rmsd_to_reference_A>
0.000

> <vina_score>


> <minimizedAffinity>
-4.05176

> <minimizedRMSD>
0.84576

> <CNNscore>
0.5972895622

> <CNNaffinity>
4.9232792854

> <CNN_VS>
2.9406232834

> <CNNaffinity_variance>
0.4128581583

$$$$
bg33_4_pose1


 20 20  0  0  0  0  0  0  0  0999 V2000
   -1.0110   -4.2847    6.1412 C   0  0  0  0  0  0  0  0  0  0  0  0
   -0.1791   -4.7364    6.9854 O   0  0  0  0  0  0  0  0  0  0  0  0
   -0.6410   -3.3643    5.0545 C   0  0  0  0  0  0  0  0  0  0  0  0
   -0.3737   -1.9958    5.3921 C   0  0  0  0  0  0  0  0  0  0  0  0
   -0.0902   -0.9676    4.3091 C   0  0  0  0  0  0  0  0  0  0  0  0
   -0.1182    0.3899    4.5476 C   0  0  0  0  0  0  0  0  0  0  0  0
    0.1591    1.3387    3.5034 C   0  0  0  0  0  0  0  0  0  0  0  0
    0.4913    0.9317    2.1985 C   0  0  0  0  0  0  0  0  0  0  0  0
    0.5291   -0.4451    1.9898 C   0  0  0  0  0  0  0  0  0  0  0  0
    0.2634   -1.3650    3.0122 C   0  0  0  0  0  0  0  0  0  0  0  0
    0.8236    1.7922    1.1718 O   0  0  0  0  0  0  0  0  0  0  0  0
    2.2132    1.8922    0.7704 C   0  0  0  0  0  0  0  0  0  0  0  0
   -2.3878   -4.7873    6.1192 O   0  0  0  0  0  0  0  0  0  0  0  0
   -3.3537   -4.0967    5.4022 C   0  0  0  0  0  0  0  0  0  0  0  0
   -4.2606   -3.5670    6.5506 C   0  0  0  0  0  0  0  0  0  0  0  0
   -3.8532   -2.1220    6.9882 C   0  0  0  0  0  0  0  0  0  0  0  0
   -4.0711   -5.1052    4.3896 C   0  0  0  0  0  0  0  0  0  0  0  0
   -3.3486   -5.1215    3.0666 C   0  0  0  0  0  0  0  0  0  0  0  0
   -4.9075   -6.1237    1.3371 C   0  0  0  0  0  0  0  0  0  0  0  0
   -4.2889   -4.8696    1.8904 C   0  0  0  0  0  0  0  0  0  0  0  0
 20 19  1  0
 18 20  1  0
 17 18  1  0
 14 17  1  0
 15 14  1  0
 16 15  1  0
 13 14  1  0
  1 13  1  0
  2  1  2  0
  3  1  1  0
  4  3  2  0
  5  4  1  0
  6  5  1  0
  7  6  2  0
  8  7  1  0
 11  8  1  0
 12 11  1  0
  9  8  2  0
 10  9  1  0
 10  5  2  0
M  END
> <structure>
bg33_4

> <pose>
1

> <is_reference>
0

> <rmsd_to_reference_A>
4.067

> <vina_score>
-4.7

> <minimizedAffinity>
-4.69021

> <minimizedRMSD>
0.22006

> <CNNscore>
0.3208466768

> <CNNaffinity>
4.3436331749

> <CNN_VS>
1.3936402798

> <CNNaffinity_variance>
0.1755354404

$$$$
bg33_4_pose2


 20 20  0  0  0  0  0  0  0  0999 V2000
    2.4689    2.9047    0.4324 C   0  0  0  0  0  0  0  0  0  0  0  0
    2.4257    4.1689    0.3446 O   0  0  0  0  0  0  0  0  0  0  0  0
    3.6561    2.1093    0.0817 C   0  0  0  0  0  0  0  0  0  0  0  0
    4.9201    2.5070    0.6321 C   0  0  0  0  0  0  0  0  0  0  0  0
    6.2031    1.7976    0.2298 C   0  0  0  0  0  0  0  0  0  0  0  0
    7.4534    2.2916    0.5355 C   0  0  0  0  0  0  0  0  0  0  0  0
    8.6485    1.5962    0.1444 C   0  0  0  0  0  0  0  0  0  0  0  0
    8.6035    0.3719   -0.5469 C   0  0  0  0  0  0  0  0  0  0  0  0
    7.3286   -0.1136   -0.8282 C   0  0  0  0  0  0  0  0  0  0  0  0
    6.1665    0.5668   -0.4395 C   0  0  0  0  0  0  0  0  0  0  0  0
    9.7144   -0.3690   -0.8976 O   0  0  0  0  0  0  0  0  0  0  0  0
    9.7280   -1.7867   -0.5906 C   0  0  0  0  0  0  0  0  0  0  0  0
    1.3589    2.1677    1.0433 O   0  0  0  0  0  0  0  0  0  0  0  0
    1.6147    1.2946    2.0898 C   0  0  0  0  0  0  0  0  0  0  0  0
    0.2282    0.6068    2.2549 C   0  0  0  0  0  0  0  0  0  0  0  0
   -0.3805    0.8677    3.6712 C   0  0  0  0  0  0  0  0  0  0  0  0
    2.1038    2.1335    3.3609 C   0  0  0  0  0  0  0  0  0  0  0  0
    3.4131    1.5910    3.8742 C   0  0  0  0  0  0  0  0  0  0  0  0
    5.1479   -0.1370    3.2185 C   0  0  0  0  0  0  0  0  0  0  0  0
    3.6848    0.1713    3.3819 C   0  0  0  0  0  0  0  0  0  0  0  0
 20 19  1  0
 18 20  1  0
 17 18  1  0
 14 17  1  0
 15 14  1  0
 16 15  1  0
 13 14  1  0
  1 13  1  0
  2  1  2  0
  3  1  1  0
  4  3  2  0
  5  4  1  0
  6  5  1  0
  7  6  2  0
  8  7  1  0
 11  8  1  0
 12 11  1  0
  9  8  2  0
 10  9  1  0
 10  5  2  0
M  END
> <structure>
bg33_4

> <pose>
2

> <is_reference>
0

> <rmsd_to_reference_A>
7.425

> <vina_score>
-4.5

> <minimizedAffinity>
-4.17519

> <minimizedRMSD>
0.23746

> <CNNscore>
0.2267331928

> <CNNaffinity>
4.0187740326

> <CNN_VS>
0.9111894965

> <CNNaffinity_variance>
0.3454982936

$$$$
bg33_4_pose3


 20 20  0  0  0  0  0  0  0  0999 V2000
    2.6332    2.0031    0.1531 C   0  0  0  0  0  0  0  0  0  0  0  0
    2.9743    1.2792   -0.8306 O   0  0  0  0  0  0  0  0  0  0  0  0
    2.1789    1.4555    1.4416 C   0  0  0  0  0  0  0  0  0  0  0  0
    0.9307    0.7507    1.4719 C   0  0  0  0  0  0  0  0  0  0  0  0
    0.3483    0.2502    2.7845 C   0  0  0  0  0  0  0  0  0  0  0  0
    0.5059   -1.0479    3.2203 C   0  0  0  0  0  0  0  0  0  0  0  0
   -0.0525   -1.4896    4.4696 C   0  0  0  0  0  0  0  0  0  0  0  0
   -0.7639   -0.6197    5.3145 C   0  0  0  0  0  0  0  0  0  0  0  0
   -0.8939    0.6901    4.8576 C   0  0  0  0  0  0  0  0  0  0  0  0
   -0.3434    1.1174    3.6429 C   0  0  0  0  0  0  0  0  0  0  0  0
   -1.2728   -0.9716    6.5486 O   0  0  0  0  0  0  0  0  0  0  0  0
   -2.6983   -1.2080    6.6706 C   0  0  0  0  0  0  0  0  0  0  0  0
    2.8200    3.4561    0.1015 O   0  0  0  0  0  0  0  0  0  0  0  0
    3.8637    4.0342    0.8098 C   0  0  0  0  0  0  0  0  0  0  0  0
    3.3479    5.4940    0.9708 C   0  0  0  0  0  0  0  0  0  0  0  0
    1.8544    5.5301    1.4326 C   0  0  0  0  0  0  0  0  0  0  0  0
    5.2118    3.8883   -0.0370 C   0  0  0  0  0  0  0  0  0  0  0  0
    6.2054    3.0300    0.7034 C   0  0  0  0  0  0  0  0  0  0  0  0
    5.9690    0.5306    1.0575 C   0  0  0  0  0  0  0  0  0  0  0  0
    6.3290    1.6332    0.0994 C   0  0  0  0  0  0  0  0  0  0  0  0
 20 19  1  0
 18 20  1  0
 17 18  1  0
 14 17  1  0
 15 14  1  0
 16 15  1  0
 13 14  1  0
  1 13  1  0
  2  1  2  0
  3  1  1  0
  4  3  2  0
  5  4  1  0
  6  5  1  0
  7  6  2  0
  8  7  1  0
 11  8  1  0
 12 11  1  0
  9  8  2  0
 10  9  1  0
 10  5  2  0
M  END
> <structure>
bg33_4

> <pose>
3

> <is_reference>
0

> <rmsd_to_reference_A>
8.756

> <vina_score>
-4.4

> <minimizedAffinity>
-4.43574

> <minimizedRMSD>
0.13875

> <CNNscore>
0.2704668641

> <CNNaffinity>
3.9710776806

> <CNN_VS>
1.0740449429

> <CNNaffinity_variance>
0.3270584345

$$$$
bg33_4_pose4


 20 20  0  0  0  0  0  0  0  0999 V2000
    2.2307    5.0292    1.3048 C   0  0  0  0  0  0  0  0  0  0  0  0
    1.4833    6.0528    1.2503 O   0  0  0  0  0  0  0  0  0  0  0  0
    1.9037    3.8314    2.0937 C   0  0  0  0  0  0  0  0  0  0  0  0
    1.6927    2.5990    1.3911 C   0  0  0  0  0  0  0  0  0  0  0  0
    1.2468    1.3459    2.1292 C   0  0  0  0  0  0  0  0  0  0  0  0
    1.3809    1.2002    3.4928 C   0  0  0  0  0  0  0  0  0  0  0  0
    0.9466    0.0045    4.1627 C   0  0  0  0  0  0  0  0  0  0  0  0
    0.3471   -1.0602    3.4680 C   0  0  0  0  0  0  0  0  0  0  0  0
    0.2080   -0.8800    2.0936 C   0  0  0  0  0  0  0  0  0  0  0  0
    0.6283    0.2895    1.4462 C   0  0  0  0  0  0  0  0  0  0  0  0
   -0.1406   -2.2070    4.0638 O   0  0  0  0  0  0  0  0  0  0  0  0
   -0.6440   -2.1232    5.4214 C   0  0  0  0  0  0  0  0  0  0  0  0
    3.4157    4.9320    0.4480 O   0  0  0  0  0  0  0  0  0  0  0  0
    4.6668    5.2026    0.9810 C   0  0  0  0  0  0  0  0  0  0  0  0
    4.9879    6.5729    0.3173 C   0  0  0  0  0  0  0  0  0  0  0  0
    6.2437    6.4866   -0.6090 C   0  0  0  0  0  0  0  0  0  0  0  0
    5.6666    4.0178    0.5916 C   0  0  0  0  0  0  0  0  0  0  0  0
    4.9441    2.9649   -0.2105 C   0  0  0  0  0  0  0  0  0  0  0  0
    6.0602    0.7004   -0.4436 C   0  0  0  0  0  0  0  0  0  0  0  0
    5.1338    1.5644    0.3678 C   0  0  0  0  0  0  0  0  0  0  0  0
 20 19  1  0
 18 20  1  0
 17 18  1  0
 14 17  1  0
 15 14  1  0
 16 15  1  0
 13 14  1  0
  1 13  1  0
  2  1  2  0
  3  1  1  0
  4  3  2  0
  5  4  1  0
  6  5  1  0
  7  6  2  0
  8  7  1  0
 11  8  1  0
 12 11  1  0
  9  8  2  0
 10  9  1  0
 10  5  2  0
M  END
> <structure>
bg33_4

> <pose>
4

> <is_reference>
0

> <rmsd_to_reference_A>
9.275

> <vina_score>
-4.4

> <minimizedAffinity>
-4.42338

> <minimizedRMSD>
0.27331

> <CNNscore>
0.3777083457

> <CNNaffinity>
4.4658398628

> <CNN_VS>
1.6867849827

> <CNNaffinity_variance>
0.8636853695

$$$$
bg33_4_pose5


 20 20  0  0  0  0  0  0  0  0999 V2000
    8.4753    0.1262   -0.5582 C   0  0  0  0  0  0  0  0  0  0  0  0
    9.5966    0.4637   -1.0461 O   0  0  0  0  0  0  0  0  0  0  0  0
    7.4690    1.0956   -0.0984 C   0  0  0  0  0  0  0  0  0  0  0  0
    6.0948    0.8500   -0.4319 C   0  0  0  0  0  0  0  0  0  0  0  0
    5.0148    1.8616   -0.0831 C   0  0  0  0  0  0  0  0  0  0  0  0
    3.6723    1.5509   -0.0994 C   0  0  0  0  0  0  0  0  0  0  0  0
    2.6744    2.5292    0.2399 C   0  0  0  0  0  0  0  0  0  0  0  0
    3.0166    3.8373    0.6250 C   0  0  0  0  0  0  0  0  0  0  0  0
    4.3805    4.1197    0.6493 C   0  0  0  0  0  0  0  0  0  0  0  0
    5.3497    3.1612    0.3224 C   0  0  0  0  0  0  0  0  0  0  0  0
    2.1080    4.8010    1.0158 O   0  0  0  0  0  0  0  0  0  0  0  0
    2.3969    6.1899    0.7148 C   0  0  0  0  0  0  0  0  0  0  0  0
    8.0605   -1.2793   -0.5633 O   0  0  0  0  0  0  0  0  0  0  0  0
    8.2426   -2.0490    0.5763 C   0  0  0  0  0  0  0  0  0  0  0  0
    9.4355   -2.9512    0.1445 C   0  0  0  0  0  0  0  0  0  0  0  0
    9.2026   -3.5778   -1.2685 C   0  0  0  0  0  0  0  0  0  0  0  0
    6.8880   -2.8344    0.8970 C   0  0  0  0  0  0  0  0  0  0  0  0
    6.4474   -2.5641    2.3125 C   0  0  0  0  0  0  0  0  0  0  0  0
    5.4500   -0.3386    3.0037 C   0  0  0  0  0  0  0  0  0  0  0  0
    6.7070   -1.1201    2.7352 C   0  0  0  0  0  0  0  0  0  0  0  0
 20 19  1  0
 18 20  1  0
 17 18  1  0
 14 17  1  0
 15 14  1  0
 16 15  1  0
 13 14  1  0
  1 13  1  0
  2  1  2  0
  3  1  1  0
  4  3  2  0
  5  4  1  0
  6  5  1  0
  7  6  2  0
  8  7  1  0
 11  8  1  0
 12 11  1  0
  9  8  2  0
 10  9  1  0
 10  5  2  0
M  END
> <structure>
bg33_4

> <pose>
5

> <is_reference>
0

> <rmsd_to_reference_A>
9.638

> <vina_score>
-4.4

> <minimizedAffinity>
-4.08227

> <minimizedRMSD>
0.15235

> <CNNscore>
0.2768298388

> <CNNaffinity>
4.2821421623

> <CNN_VS>
1.1854246855

> <CNNaffinity_variance>
0.0775446519

$$$$
bg33_4_pose6


 20 20  0  0  0  0  0  0  0  0999 V2000
   -0.7092   -3.2116    5.6433 C   0  0  0  0  0  0  0  0  0  0  0  0
   -0.0720   -4.0656    6.3312 O   0  0  0  0  0  0  0  0  0  0  0  0
   -0.0762   -2.3629    4.6220 C   0  0  0  0  0  0  0  0  0  0  0  0
   -0.2584   -0.9434    4.7176 C   0  0  0  0  0  0  0  0  0  0  0  0
    0.2775   -0.0138    3.6400 C   0  0  0  0  0  0  0  0  0  0  0  0
    0.3286   -0.3700    2.3086 C   0  0  0  0  0  0  0  0  0  0  0  0
    0.8357    0.5327    1.3121 C   0  0  0  0  0  0  0  0  0  0  0  0
    1.2839    1.8250    1.6399 C   0  0  0  0  0  0  0  0  0  0  0  0
    1.2051    2.1660    2.9874 C   0  0  0  0  0  0  0  0  0  0  0  0
    0.7039    1.2836    3.9551 C   0  0  0  0  0  0  0  0  0  0  0  0
    1.7276    2.7552    0.7199 O   0  0  0  0  0  0  0  0  0  0  0  0
    2.8922    2.4360   -0.0823 C   0  0  0  0  0  0  0  0  0  0  0  0
   -2.1691   -3.1309    5.7319 O   0  0  0  0  0  0  0  0  0  0  0  0
   -2.7737   -3.0781    6.9795 C   0  0  0  0  0  0  0  0  0  0  0  0
   -4.2364   -3.4742    6.6235 C   0  0  0  0  0  0  0  0  0  0  0  0
   -4.2918   -4.4272    5.3856 C   0  0  0  0  0  0  0  0  0  0  0  0
   -2.6032   -1.6049    7.5784 C   0  0  0  0  0  0  0  0  0  0  0  0
   -3.7654   -0.7355    7.1698 C   0  0  0  0  0  0  0  0  0  0  0  0
   -3.7613    1.7213    6.5455 C   0  0  0  0  0  0  0  0  0  0  0  0
   -3.3643    0.3259    6.1481 C   0  0  0  0  0  0  0  0  0  0  0  0
 20 19  1  0
 18 20  1  0
 17 18  1  0
 14 17  1  0
 15 14  1  0
 16 15  1  0
 13 14  1  0
  1 13  1  0
  2  1  2  0
  3  1  1  0
  4  3  2  0
  5  4  1  0
  6  5  1  0
  7  6  2  0
  8  7  1  0
 11  8  1  0
 12 11  1  0
  9  8  2  0
 10  9  1  0
 10  5  2  0
M  END
> <structure>
bg33_4

> <pose>
6

> <is_reference>
0

> <rmsd_to_reference_A>
1.301

> <vina_score>
-4.4

> <minimizedAffinity>
-4.39328

> <minimizedRMSD>
0.28323

> <CNNscore>
0.4173120260

> <CNNaffinity>
4.6732850075

> <CNN_VS>
1.9502180815

> <CNNaffinity_variance>
0.2238353640

$$$$
bg33_4_pose7


 20 20  0  0  0  0  0  0  0  0999 V2000
    2.9476    2.1851    0.3991 C   0  0  0  0  0  0  0  0  0  0  0  0
    2.4343    3.2628   -0.0287 O   0  0  0  0  0  0  0  0  0  0  0  0
    2.4577    1.4724    1.5890 C   0  0  0  0  0  0  0  0  0  0  0  0
    1.0954    1.0233    1.5931 C   0  0  0  0  0  0  0  0  0  0  0  0
    0.4911    0.3756    2.8290 C   0  0  0  0  0  0  0  0  0  0  0  0
   -0.2786    1.0745    3.7349 C   0  0  0  0  0  0  0  0  0  0  0  0
   -0.8398    0.4332    4.8917 C   0  0  0  0  0  0  0  0  0  0  0  0
   -0.6504   -0.9369    5.1462 C   0  0  0  0  0  0  0  0  0  0  0  0
    0.1164   -1.6235    4.2080 C   0  0  0  0  0  0  0  0  0  0  0  0
    0.6565   -0.9936    3.0783 C   0  0  0  0  0  0  0  0  0  0  0  0
   -1.2105   -1.6200    6.2077 O   0  0  0  0  0  0  0  0  0  0  0  0
   -1.7172   -2.9597    5.9817 C   0  0  0  0  0  0  0  0  0  0  0  0
    3.9869    1.5023   -0.3780 O   0  0  0  0  0  0  0  0  0  0  0  0
    5.2361    1.2978    0.1885 C   0  0  0  0  0  0  0  0  0  0  0  0
    5.7618    2.7592    0.2966 C   0  0  0  0  0  0  0  0  0  0  0  0
    6.8306    2.9061    1.4283 C   0  0  0  0  0  0  0  0  0  0  0  0
    6.0923    0.3460   -0.7697 C   0  0  0  0  0  0  0  0  0  0  0  0
    6.9207   -0.6113    0.0482 C   0  0  0  0  0  0  0  0  0  0  0  0
    8.8542    0.7281   -0.8994 C   0  0  0  0  0  0  0  0  0  0  0  0
    8.3931   -0.5976   -0.3587 C   0  0  0  0  0  0  0  0  0  0  0  0
 20 19  1  0
 18 20  1  0
 17 18  1  0
 14 17  1  0
 15 14  1  0
 16 15  1  0
 13 14  1  0
  1 13  1  0
  2  1  2  0
  3  1  1  0
  4  3  2  0
  5  4  1  0
  6  5  1  0
  7  6  2  0
  8  7  1  0
 11  8  1  0
 12 11  1  0
  9  8  2  0
 10  9  1  0
 10  5  2  0
M  END
> <structure>
bg33_4

> <pose>
7

> <is_reference>
0

> <rmsd_to_reference_A>
9.297

> <vina_score>
-4.4

> <minimizedAffinity>
-4.54155

> <minimizedRMSD>
0.45729

> <CNNscore>
0.3977823257

> <CNNaffinity>
4.3646893501

> <CNN_VS>
1.7361962795

> <CNNaffinity_variance>
0.3640449941

$$$$
bg33_4_pose8


 20 20  0  0  0  0  0  0  0  0999 V2000
    2.4770    2.8460    0.4917 C   0  0  0  0  0  0  0  0  0  0  0  0
    3.2331    2.6388   -0.5052 O   0  0  0  0  0  0  0  0  0  0  0  0
    2.1456    1.8107    1.4832 C   0  0  0  0  0  0  0  0  0  0  0  0
    0.7593    1.5494    1.7472 C   0  0  0  0  0  0  0  0  0  0  0  0
    0.3441    0.5701    2.8336 C   0  0  0  0  0  0  0  0  0  0  0  0
    0.6101   -0.7802    2.7597 C   0  0  0  0  0  0  0  0  0  0  0  0
    0.2074   -1.6802    3.8054 C   0  0  0  0  0  0  0  0  0  0  0  0
   -0.4555   -1.2280    4.9601 C   0  0  0  0  0  0  0  0  0  0  0  0
   -0.6964    0.1419    5.0177 C   0  0  0  0  0  0  0  0  0  0  0  0
   -0.2967    1.0165    3.9976 C   0  0  0  0  0  0  0  0  0  0  0  0
   -0.8145   -2.0354    6.0214 O   0  0  0  0  0  0  0  0  0  0  0  0
   -2.1633   -1.9370    6.5427 C   0  0  0  0  0  0  0  0  0  0  0  0
    2.0053    4.2002    0.7925 O   0  0  0  0  0  0  0  0  0  0  0  0
    2.7270    4.9940    1.6715 C   0  0  0  0  0  0  0  0  0  0  0  0
    1.6376    5.3431    2.7270 C   0  0  0  0  0  0  0  0  0  0  0  0
    1.7439    4.4281    3.9910 C   0  0  0  0  0  0  0  0  0  0  0  0
    3.3176    6.2493    0.8758 C   0  0  0  0  0  0  0  0  0  0  0  0
    2.2010    7.0468    0.2533 C   0  0  0  0  0  0  0  0  0  0  0  0
    1.6645    8.9892   -1.2865 C   0  0  0  0  0  0  0  0  0  0  0  0
    2.7084    8.3079   -0.4441 C   0  0  0  0  0  0  0  0  0  0  0  0
 20 19  1  0
 18 20  1  0
 17 18  1  0
 14 17  1  0
 15 14  1  0
 16 15  1  0
 13 14  1  0
  1 13  1  0
  2  1  2  0
  3  1  1  0
  4  3  2  0
  5  4  1  0
  6  5  1  0
  7  6  2  0
  8  7  1  0
 11  8  1  0
 12 11  1  0
  9  8  2  0
 10  9  1  0
 10  5  2  0
M  END
> <structure>
bg33_4

> <pose>
8

> <is_reference>
0

> <rmsd_to_reference_A>
8.411

> <vina_score>
-4.3

> <minimizedAffinity>
-4.37459

> <minimizedRMSD>
0.16269

> <CNNscore>
0.3172498345

> <CNNaffinity>
4.4006271362

> <CNN_VS>
1.3960982561

> <CNNaffinity_variance>
0.2203001380

$$$$
bg33_4_pose9


 20 20  0  0  0  0  0  0  0  0999 V2000
    2.4738    3.1641    0.5174 C   0  0  0  0  0  0  0  0  0  0  0  0
    1.4936    2.4697    0.9260 O   0  0  0  0  0  0  0  0  0  0  0  0
    3.7056    2.5768   -0.0334 C   0  0  0  0  0  0  0  0  0  0  0  0
    4.7389    2.1925    0.8848 C   0  0  0  0  0  0  0  0  0  0  0  0
    6.0786    1.6783    0.3810 C   0  0  0  0  0  0  0  0  0  0  0  0
    6.1900    0.5819   -0.4464 C   0  0  0  0  0  0  0  0  0  0  0  0
    7.4713    0.1223   -0.9104 C   0  0  0  0  0  0  0  0  0  0  0  0
    8.6656    0.7779   -0.5628 C   0  0  0  0  0  0  0  0  0  0  0  0
    8.5224    1.8924    0.2601 C   0  0  0  0  0  0  0  0  0  0  0  0
    7.2712    2.3397    0.7046 C   0  0  0  0  0  0  0  0  0  0  0  0
    9.9164    0.4185   -1.0220 O   0  0  0  0  0  0  0  0  0  0  0  0
   10.4454   -0.8807   -0.6536 C   0  0  0  0  0  0  0  0  0  0  0  0
    2.3640    4.6228    0.4373 O   0  0  0  0  0  0  0  0  0  0  0  0
    2.8621    5.4018    1.4720 C   0  0  0  0  0  0  0  0  0  0  0  0
    1.5582    6.0625    2.0066 C   0  0  0  0  0  0  0  0  0  0  0  0
    0.9676    7.0854    0.9816 C   0  0  0  0  0  0  0  0  0  0  0  0
    3.9408    6.4233    0.8831 C   0  0  0  0  0  0  0  0  0  0  0  0
    5.3281    5.8433    0.9933 C   0  0  0  0  0  0  0  0  0  0  0  0
    7.2649    6.3701   -0.5548 C   0  0  0  0  0  0  0  0  0  0  0  0
    5.9742    5.6199   -0.3715 C   0  0  0  0  0  0  0  0  0  0  0  0
 20 19  1  0
 18 20  1  0
 17 18  1  0
 14 17  1  0
 15 14  1  0
 16 15  1  0
 13 14  1  0
  1 13  1  0
  2  1  2  0
  3  1  1  0
  4  3  2  0
  5  4  1  0
  6  5  1  0
  7  6  2  0
  8  7  1  0
 11  8  1  0
 12 11  1  0
  9  8  2  0
 10  9  1  0
 10  5  2  0
M  END
> <structure>
bg33_4

> <pose>
9

> <is_reference>
0

> <rmsd_to_reference_A>
9.378

> <vina_score>
-4.3

> <minimizedAffinity>
-4.20924

> <minimizedRMSD>
0.25202

> <CNNscore>
0.2528960705

> <CNNaffinity>
4.2687420845

> <CNN_VS>
1.0795481205

> <CNNaffinity_variance>
0.3628115356

$$$$
