orig_f12_pose0_reference


 20 20  0  0  0  0  0  0  0  0999 V2000
   -2.6865    5.2699    1.6459 C   0  0  0  0  0  0  0  0  0  0  0  0
   -1.8257    5.0811    2.4783 O   0  0  0  0  0  0  0  0  0  0  0  0
   -2.9200    4.4072    0.4806 C   0  0  0  0  0  0  0  0  0  0  0  0
   -2.1309    3.3442    0.2845 C   0  0  0  0  0  0  0  0  0  0  0  0
   -2.2250    2.5012   -0.9198 C   0  0  0  0  0  0  0  0  0  0  0  0
   -3.2644    2.6165   -1.8147 C   0  0  0  0  0  0  0  0  0  0  0  0
   -3.3015    1.8326   -2.9564 C   0  0  0  0  0  0  0  0  0  0  0  0
   -2.3039    0.9267   -3.1968 C   0  0  0  0  0  0  0  0  0  0  0  0
   -1.2544    0.8057   -2.3054 C   0  0  0  0  0  0  0  0  0  0  0  0
   -1.2268    1.5882   -1.1575 C   0  0  0  0  0  0  0  0  0  0  0  0
   -2.2791    0.1402   -4.3128 O   0  0  0  0  0  0  0  0  0  0  0  0
   -3.4064    0.1073   -5.1798 C   0  0  0  0  0  0  0  0  0  0  0  0
   -3.4936    6.3209    1.6704 O   0  0  0  0  0  0  0  0  0  0  0  0
   -3.1226    7.4527    2.4199 C   0  0  0  0  0  0  0  0  0  0  0  0
   -2.9663    8.6496    1.4946 C   0  0  0  0  0  0  0  0  0  0  0  0
   -2.3824    8.3353    0.1296 C   0  0  0  0  0  0  0  0  0  0  0  0
   -4.1878    7.7101    3.4637 C   0  0  0  0  0  0  0  0  0  0  0  0
   -4.3697    6.5883    4.4328 C   0  0  0  0  0  0  0  0  0  0  0  0
   -6.0110    5.3559    5.8525 C   0  0  0  0  0  0  0  0  0  0  0  0
   -5.7275    6.6183    5.0746 C   0  0  0  0  0  0  0  0  0  0  0  0
 20 19  1  0
 18 20  1  0
 17 18  1  0
 14 17  1  0
 15 14  1  0
 16 15  1  0
 13 14  1  0
  1 13  1  0
  2  1  2  0
  3  1  1  0
  4  3  2  0
  5  4  1  0
  6  5  1  0
  7  6  2  0
  8  7  1  0
 11  8  1  0
 12 11  1  0
  9  8  2  0
 10  9  1  0
 10  5  2  0
M  END
> <structure>
orig_f12

> <pose>
0

> <is_reference>
1

> <rmsd_to_reference_A>
0.000

> <vina_score>


> <minimizedAffinity>
-5.20119

> <minimizedRMSD>
1.00146

> <CNNscore>
0.7037637234

> <CNNaffinity>
4.2613730431

> <CNN_VS>
2.9989998341

> <CNNaffinity_variance>
0.1603170186

$$$$
orig_f12_pose1


 20 20  0  0  0  0  0  0  0  0999 V2000
   -3.3590    2.4191   -2.2562 C   0  0  0  0  0  0  0  0  0  0  0  0
   -3.3341    3.5436   -2.7095 O   0  0  0  0  0  0  0  0  0  0  0  0
   -3.5616    1.2050   -3.0575 C   0  0  0  0  0  0  0  0  0  0  0  0
   -3.1454    1.1822   -4.3292 C   0  0  0  0  0  0  0  0  0  0  0  0
   -3.4175    0.0489   -5.2297 C   0  0  0  0  0  0  0  0  0  0  0  0
   -2.4071   -0.6747   -5.8211 C   0  0  0  0  0  0  0  0  0  0  0  0
   -2.6982   -1.7583   -6.6336 C   0  0  0  0  0  0  0  0  0  0  0  0
   -4.0008   -2.1110   -6.8625 C   0  0  0  0  0  0  0  0  0  0  0  0
   -5.0232   -1.3923   -6.2699 C   0  0  0  0  0  0  0  0  0  0  0  0
   -4.7252   -0.3016   -5.4624 C   0  0  0  0  0  0  0  0  0  0  0  0
   -4.3478   -3.1790   -7.6390 O   0  0  0  0  0  0  0  0  0  0  0  0
   -5.4026   -4.0393   -7.2291 C   0  0  0  0  0  0  0  0  0  0  0  0
   -3.2527    2.1620   -0.9606 O   0  0  0  0  0  0  0  0  0  0  0  0
   -2.4185    2.9723   -0.1672 C   0  0  0  0  0  0  0  0  0  0  0  0
   -3.2625    3.9797    0.5984 C   0  0  0  0  0  0  0  0  0  0  0  0
   -2.7966    5.4194    0.4942 C   0  0  0  0  0  0  0  0  0  0  0  0
   -1.6432    2.0829    0.7799 C   0  0  0  0  0  0  0  0  0  0  0  0
   -0.1869    1.9855    0.4652 C   0  0  0  0  0  0  0  0  0  0  0  0
   -0.5060    0.2475   -1.2967 C   0  0  0  0  0  0  0  0  0  0  0  0
    0.1925    0.6118   -0.0090 C   0  0  0  0  0  0  0  0  0  0  0  0
 20 19  1  0
 18 20  1  0
 17 18  1  0
 14 17  1  0
 15 14  1  0
 16 15  1  0
 13 14  1  0
  1 13  1  0
  2  1  2  0
  3  1  1  0
  4  3  2  0
  5  4  1  0
  6  5  1  0
  7  6  2  0
  8  7  1  0
 11  8  1  0
 12 11  1  0
  9  8  2  0
 10  9  1  0
 10  5  2  0
M  END
> <structure>
orig_f12

> <pose>
1

> <is_reference>
0

> <rmsd_to_reference_A>
5.962

> <vina_score>
-6.0

> <minimizedAffinity>
-6.03420

> <minimizedRMSD>
0.12305

> <CNNscore>
0.5934461355

> <CNNaffinity>
3.9108715057

> <CNN_VS>
2.3208916187

> <CNNaffinity_variance>
0.9520132542

$$$$
orig_f12_pose2


 20 20  0  0  0  0  0  0  0  0999 V2000
   -5.6561   -0.7184   -5.2370 C   0  0  0  0  0  0  0  0  0  0  0  0
   -6.8465   -0.9469   -5.2116 O   0  0  0  0  0  0  0  0  0  0  0  0
   -4.8610   -0.3147   -4.0703 C   0  0  0  0  0  0  0  0  0  0  0  0
   -4.1144    0.7937   -4.1374 C   0  0  0  0  0  0  0  0  0  0  0  0
   -3.2013    1.1982   -3.0561 C   0  0  0  0  0  0  0  0  0  0  0  0
   -2.1098    0.4395   -2.6962 C   0  0  0  0  0  0  0  0  0  0  0  0
   -1.2506    0.8700   -1.6989 C   0  0  0  0  0  0  0  0  0  0  0  0
   -1.4889    2.0535   -1.0533 C   0  0  0  0  0  0  0  0  0  0  0  0
   -2.5803    2.8233   -1.4095 C   0  0  0  0  0  0  0  0  0  0  0  0
   -3.4445    2.3837   -2.4055 C   0  0  0  0  0  0  0  0  0  0  0  0
   -0.6679    2.5356   -0.0747 O   0  0  0  0  0  0  0  0  0  0  0  0
    0.4244    1.7474    0.3839 C   0  0  0  0  0  0  0  0  0  0  0  0
   -4.9388   -0.7599   -6.3509 O   0  0  0  0  0  0  0  0  0  0  0  0
   -4.3024   -1.9621   -6.7110 C   0  0  0  0  0  0  0  0  0  0  0  0
   -5.1335   -2.6877   -7.7582 C   0  0  0  0  0  0  0  0  0  0  0  0
   -5.8103   -3.9571   -7.2751 C   0  0  0  0  0  0  0  0  0  0  0  0
   -2.9243   -1.6360   -7.2450 C   0  0  0  0  0  0  0  0  0  0  0  0
   -2.0047   -1.0434   -6.2276 C   0  0  0  0  0  0  0  0  0  0  0  0
   -0.3286    0.7555   -5.8032 C   0  0  0  0  0  0  0  0  0  0  0  0
   -1.4876    0.2993   -6.6570 C   0  0  0  0  0  0  0  0  0  0  0  0
 20 19  1  0
 18 20  1  0
 17 18  1  0
 14 17  1  0
 15 14  1  0
 16 15  1  0
 13 14  1  0
  1 13  1  0
  2  1  2  0
  3  1  1  0
  4  3  2  0
  5  4  1  0
  6  5  1  0
  7  6  2  0
  8  7  1  0
 11  8  1  0
 12 11  1  0
  9  8  2  0
 10  9  1  0
 10  5  2  0
M  END
> <structure>
orig_f12

> <pose>
2

> <is_reference>
0

> <rmsd_to_reference_A>
9.798

> <vina_score>
-6.0

> <minimizedAffinity>
-5.33257

> <minimizedRMSD>
0.21445

> <CNNscore>
0.2571164966

> <CNNaffinity>
3.8762867451

> <CNN_VS>
0.9966572523

> <CNNaffinity_variance>
0.5818805695

$$$$
orig_f12_pose3


 20 20  0  0  0  0  0  0  0  0999 V2000
   -2.6735   -1.0416   -6.3571 C   0  0  0  0  0  0  0  0  0  0  0  0
   -2.1147   -1.0377   -7.4325 O   0  0  0  0  0  0  0  0  0  0  0  0
   -2.1851   -0.3364   -5.1641 C   0  0  0  0  0  0  0  0  0  0  0  0
   -3.0675    0.1811   -4.3028 C   0  0  0  0  0  0  0  0  0  0  0  0
   -2.6588    1.0020   -3.1493 C   0  0  0  0  0  0  0  0  0  0  0  0
   -3.4082    2.0686   -2.7085 C   0  0  0  0  0  0  0  0  0  0  0  0
   -3.0123    2.7961   -1.5972 C   0  0  0  0  0  0  0  0  0  0  0  0
   -1.8623    2.4611   -0.9347 C   0  0  0  0  0  0  0  0  0  0  0  0
   -1.1057    1.3884   -1.3678 C   0  0  0  0  0  0  0  0  0  0  0  0
   -1.5028    0.6690   -2.4880 C   0  0  0  0  0  0  0  0  0  0  0  0
   -1.4333    3.1297    0.1759 O   0  0  0  0  0  0  0  0  0  0  0  0
   -0.7597    2.4238    1.2106 C   0  0  0  0  0  0  0  0  0  0  0  0
   -3.7794   -1.7330   -6.1214 O   0  0  0  0  0  0  0  0  0  0  0  0
   -4.6864   -1.9528   -7.1741 C   0  0  0  0  0  0  0  0  0  0  0  0
   -4.9872   -3.4398   -7.2880 C   0  0  0  0  0  0  0  0  0  0  0  0
   -6.0769   -3.8013   -8.2790 C   0  0  0  0  0  0  0  0  0  0  0  0
   -5.9479   -1.1651   -6.8960 C   0  0  0  0  0  0  0  0  0  0  0  0
   -6.3925   -1.2167   -5.4706 C   0  0  0  0  0  0  0  0  0  0  0  0
   -8.2676   -2.8601   -5.3640 C   0  0  0  0  0  0  0  0  0  0  0  0
   -7.8786   -1.4014   -5.3545 C   0  0  0  0  0  0  0  0  0  0  0  0
 20 19  1  0
 18 20  1  0
 17 18  1  0
 14 17  1  0
 15 14  1  0
 16 15  1  0
 13 14  1  0
  1 13  1  0
  2  1  2  0
  3  1  1  0
  4  3  2  0
  5  4  1  0
  6  5  1  0
  7  6  2  0
  8  7  1  0
 11  8  1  0
 12 11  1  0
  9  8  2  0
 10  9  1  0
 10  5  2  0
M  END
> <structure>
orig_f12

> <pose>
3

> <is_reference>
0

> <rmsd_to_reference_A>
10.100

> <vina_score>
-5.9

> <minimizedAffinity>
-5.60501

> <minimizedRMSD>
0.30035

> <CNNscore>
0.2629232109

> <CNNaffinity>
3.8119099140

> <CNN_VS>
1.0022395849

> <CNNaffinity_variance>
0.4919647276

$$$$
orig_f12_pose4


 20 20  0  0  0  0  0  0  0  0999 V2000
   -5.3546   -0.6794   -5.8655 C   0  0  0  0  0  0  0  0  0  0  0  0
   -6.1387   -0.1768   -6.6405 O   0  0  0  0  0  0  0  0  0  0  0  0
   -4.8239   -0.0125   -4.6695 C   0  0  0  0  0  0  0  0  0  0  0  0
   -3.5646    0.4397   -4.6767 C   0  0  0  0  0  0  0  0  0  0  0  0
   -2.9239    1.0120   -3.4803 C   0  0  0  0  0  0  0  0  0  0  0  0
   -1.7106    0.5601   -3.0125 C   0  0  0  0  0  0  0  0  0  0  0  0
   -1.1189    1.1470   -1.9061 C   0  0  0  0  0  0  0  0  0  0  0  0
   -1.7461    2.1785   -1.2606 C   0  0  0  0  0  0  0  0  0  0  0  0
   -2.9640    2.6412   -1.7240 C   0  0  0  0  0  0  0  0  0  0  0  0
   -3.5564    2.0431   -2.8299 C   0  0  0  0  0  0  0  0  0  0  0  0
   -1.2035    2.8052   -0.1762 O   0  0  0  0  0  0  0  0  0  0  0  0
   -0.3479    2.0845    0.7025 C   0  0  0  0  0  0  0  0  0  0  0  0
   -4.8428   -1.8895   -6.0423 O   0  0  0  0  0  0  0  0  0  0  0  0
   -5.0132   -2.5307   -7.2837 C   0  0  0  0  0  0  0  0  0  0  0  0
   -3.6546   -2.9005   -7.8584 C   0  0  0  0  0  0  0  0  0  0  0  0
   -2.4638   -2.3127   -7.1243 C   0  0  0  0  0  0  0  0  0  0  0  0
   -5.8668   -3.7624   -7.0754 C   0  0  0  0  0  0  0  0  0  0  0  0
   -7.3334   -3.5122   -7.2053 C   0  0  0  0  0  0  0  0  0  0  0  0
   -8.4232   -2.5607   -5.1709 C   0  0  0  0  0  0  0  0  0  0  0  0
   -8.0679   -3.8165   -5.9298 C   0  0  0  0  0  0  0  0  0  0  0  0
 20 19  1  0
 18 20  1  0
 17 18  1  0
 14 17  1  0
 15 14  1  0
 16 15  1  0
 13 14  1  0
  1 13  1  0
  2  1  2  0
  3  1  1  0
  4  3  2  0
  5  4  1  0
  6  5  1  0
  7  6  2  0
  8  7  1  0
 11  8  1  0
 12 11  1  0
  9  8  2  0
 10  9  1  0
 10  5  2  0
M  END
> <structure>
orig_f12

> <pose>
4

> <is_reference>
0

> <rmsd_to_reference_A>
10.256

> <vina_score>
-5.9

> <minimizedAffinity>
-5.49187

> <minimizedRMSD>
0.29015

> <CNNscore>
0.3051406443

> <CNNaffinity>
3.4641659260

> <CNN_VS>
1.0570578575

> <CNNaffinity_variance>
0.9265968204

$$$$
orig_f12_pose5


 20 20  0  0  0  0  0  0  0  0999 V2000
   -3.0895    3.7953    0.3900 C   0  0  0  0  0  0  0  0  0  0  0  0
   -3.9846    3.9724    1.1882 O   0  0  0  0  0  0  0  0  0  0  0  0
   -2.4035    4.8688   -0.3429 C   0  0  0  0  0  0  0  0  0  0  0  0
   -2.6613    6.1435   -0.0274 C   0  0  0  0  0  0  0  0  0  0  0  0
   -2.1063    7.2742   -0.7929 C   0  0  0  0  0  0  0  0  0  0  0  0
   -2.2637    7.3831   -2.1551 C   0  0  0  0  0  0  0  0  0  0  0  0
   -1.7598    8.4788   -2.8373 C   0  0  0  0  0  0  0  0  0  0  0  0
   -1.0895    9.4596   -2.1566 C   0  0  0  0  0  0  0  0  0  0  0  0
   -0.9287    9.3597   -0.7866 C   0  0  0  0  0  0  0  0  0  0  0  0
   -1.4279    8.2539   -0.1095 C   0  0  0  0  0  0  0  0  0  0  0  0
   -0.5871   10.5699   -2.7728 O   0  0  0  0  0  0  0  0  0  0  0  0
   -1.0088   10.8988   -4.0904 C   0  0  0  0  0  0  0  0  0  0  0  0
   -2.6568    2.5901    0.0488 O   0  0  0  0  0  0  0  0  0  0  0  0
   -1.4447    2.4711   -0.6557 C   0  0  0  0  0  0  0  0  0  0  0  0
   -0.3581    1.9622    0.2794 C   0  0  0  0  0  0  0  0  0  0  0  0
    0.0882    0.5329    0.0296 C   0  0  0  0  0  0  0  0  0  0  0  0
   -1.6519    1.5199   -1.8143 C   0  0  0  0  0  0  0  0  0  0  0  0
   -2.8907    1.7874   -2.6044 C   0  0  0  0  0  0  0  0  0  0  0  0
   -4.0452    0.5750   -4.4551 C   0  0  0  0  0  0  0  0  0  0  0  0
   -3.5743    0.5163   -3.0210 C   0  0  0  0  0  0  0  0  0  0  0  0
 20 19  1  0
 18 20  1  0
 17 18  1  0
 14 17  1  0
 15 14  1  0
 16 15  1  0
 13 14  1  0
  1 13  1  0
  2  1  2  0
  3  1  1  0
  4  3  2  0
  5  4  1  0
  6  5  1  0
  7  6  2  0
  8  7  1  0
 11  8  1  0
 12 11  1  0
  9  8  2  0
 10  9  1  0
 10  5  2  0
M  END
> <structure>
orig_f12

> <pose>
5

> <is_reference>
0

> <rmsd_to_reference_A>
7.633

> <vina_score>
-5.9

> <minimizedAffinity>
-5.84573

> <minimizedRMSD>
0.16256

> <CNNscore>
0.8280019164

> <CNNaffinity>
4.3904891014

> <CNN_VS>
3.6353332996

> <CNNaffinity_variance>
0.4863696396

$$$$
orig_f12_pose6


 20 20  0  0  0  0  0  0  0  0999 V2000
   -2.7797    1.6396   -2.1767 C   0  0  0  0  0  0  0  0  0  0  0  0
   -3.8458    1.9529   -1.6913 O   0  0  0  0  0  0  0  0  0  0  0  0
   -2.6250    0.8383   -3.3974 C   0  0  0  0  0  0  0  0  0  0  0  0
   -3.6855    0.6446   -4.1917 C   0  0  0  0  0  0  0  0  0  0  0  0
   -3.6399   -0.2418   -5.3674 C   0  0  0  0  0  0  0  0  0  0  0  0
   -2.4540   -0.6216   -5.9527 C   0  0  0  0  0  0  0  0  0  0  0  0
   -2.4474   -1.4869   -7.0350 C   0  0  0  0  0  0  0  0  0  0  0  0
   -3.6284   -1.9633   -7.5371 C   0  0  0  0  0  0  0  0  0  0  0  0
   -4.8244   -1.5902   -6.9538 C   0  0  0  0  0  0  0  0  0  0  0  0
   -4.8258   -0.7150   -5.8744 C   0  0  0  0  0  0  0  0  0  0  0  0
   -3.6826   -2.8303   -8.5901 O   0  0  0  0  0  0  0  0  0  0  0  0
   -4.1136   -4.1701   -8.3819 C   0  0  0  0  0  0  0  0  0  0  0  0
   -1.6169    1.9492   -1.6215 O   0  0  0  0  0  0  0  0  0  0  0  0
   -1.5881    2.3647   -0.2772 C   0  0  0  0  0  0  0  0  0  0  0  0
   -0.2455    2.0077    0.3395 C   0  0  0  0  0  0  0  0  0  0  0  0
    0.2147    0.5812    0.0985 C   0  0  0  0  0  0  0  0  0  0  0  0
   -1.8260    3.8592   -0.2293 C   0  0  0  0  0  0  0  0  0  0  0  0
   -2.9889    4.2598    0.6180 C   0  0  0  0  0  0  0  0  0  0  0  0
   -2.5909    6.6516    0.0257 C   0  0  0  0  0  0  0  0  0  0  0  0
   -2.8443    5.6619    1.1372 C   0  0  0  0  0  0  0  0  0  0  0  0
 20 19  1  0
 18 20  1  0
 17 18  1  0
 14 17  1  0
 15 14  1  0
 16 15  1  0
 13 14  1  0
  1 13  1  0
  2  1  2  0
  3  1  1  0
  4  3  2  0
  5  4  1  0
  6  5  1  0
  7  6  2  0
  8  7  1  0
 11  8  1  0
 12 11  1  0
  9  8  2  0
 10  9  1  0
 10  5  2  0
M  END
> <structure>
orig_f12

> <pose>
6

> <is_reference>
0

> <rmsd_to_reference_A>
5.519

> <vina_score>
-5.8

> <minimizedAffinity>
-6.13603

> <minimizedRMSD>
0.20377

> <CNNscore>
0.5798423290

> <CNNaffinity>
3.7217655182

> <CNN_VS>
2.1580371857

> <CNNaffinity_variance>
0.6337143779

$$$$
orig_f12_pose7


 20 20  0  0  0  0  0  0  0  0999 V2000
   -2.9376   -1.8298   -7.2922 C   0  0  0  0  0  0  0  0  0  0  0  0
   -1.8533   -2.2421   -7.6433 O   0  0  0  0  0  0  0  0  0  0  0  0
   -3.1837   -1.1028   -6.0396 C   0  0  0  0  0  0  0  0  0  0  0  0
   -2.2834   -0.2090   -5.6146 C   0  0  0  0  0  0  0  0  0  0  0  0
   -2.4003    0.4726   -4.3131 C   0  0  0  0  0  0  0  0  0  0  0  0
   -3.5940    0.9901   -3.8628 C   0  0  0  0  0  0  0  0  0  0  0  0
   -3.6753    1.5923   -2.6182 C   0  0  0  0  0  0  0  0  0  0  0  0
   -2.5606    1.6859   -1.8288 C   0  0  0  0  0  0  0  0  0  0  0  0
   -1.3585    1.1663   -2.2715 C   0  0  0  0  0  0  0  0  0  0  0  0
   -1.2808    0.5716   -3.5254 C   0  0  0  0  0  0  0  0  0  0  0  0
   -2.5853    2.2524   -0.5867 O   0  0  0  0  0  0  0  0  0  0  0  0
   -1.5373    1.9794    0.3359 C   0  0  0  0  0  0  0  0  0  0  0  0
   -4.0462   -2.0370   -7.9867 O   0  0  0  0  0  0  0  0  0  0  0  0
   -5.2623   -2.2120   -7.3011 C   0  0  0  0  0  0  0  0  0  0  0  0
   -6.3792   -1.5021   -8.0520 C   0  0  0  0  0  0  0  0  0  0  0  0
   -7.0303   -0.3549   -7.3016 C   0  0  0  0  0  0  0  0  0  0  0  0
   -5.5431   -3.6949   -7.1877 C   0  0  0  0  0  0  0  0  0  0  0  0
   -6.9551   -4.0688   -7.4974 C   0  0  0  0  0  0  0  0  0  0  0  0
   -8.4009   -3.4363   -5.5634 C   0  0  0  0  0  0  0  0  0  0  0  0
   -7.6842   -4.5570   -6.2780 C   0  0  0  0  0  0  0  0  0  0  0  0
 20 19  1  0
 18 20  1  0
 17 18  1  0
 14 17  1  0
 15 14  1  0
 16 15  1  0
 13 14  1  0
  1 13  1  0
  2  1  2  0
  3  1  1  0
  4  3  2  0
  5  4  1  0
  6  5  1  0
  7  6  2  0
  8  7  1  0
 11  8  1  0
 12 11  1  0
  9  8  2  0
 10  9  1  0
 10  5  2  0
M  END
> <structure>
orig_f12

> <pose>
7

> <is_reference>
0

> <rmsd_to_reference_A>
11.055

> <vina_score>
-5.7

> <minimizedAffinity>
-5.70005

> <minimizedRMSD>
0.63237

> <CNNscore>
0.4003232121

> <CNNaffinity>
4.0101528168

> <CNN_VS>
1.6053572893

> <CNNaffinity_variance>
0.3545246124

$$$$
orig_f12_pose8


 20 20  0  0  0  0  0  0  0  0999 V2000
   -3.5918    2.0309   -2.7825 C   0  0  0  0  0  0  0  0  0  0  0  0
   -3.9752    3.0800   -3.2548 O   0  0  0  0  0  0  0  0  0  0  0  0
   -3.5519    0.7567   -3.5108 C   0  0  0  0  0  0  0  0  0  0  0  0
   -3.6147    0.7636   -4.8479 C   0  0  0  0  0  0  0  0  0  0  0  0
   -3.6992   -0.4738   -5.6420 C   0  0  0  0  0  0  0  0  0  0  0  0
   -4.9046   -1.0199   -6.0199 C   0  0  0  0  0  0  0  0  0  0  0  0
   -4.9465   -2.1647   -6.7980 C   0  0  0  0  0  0  0  0  0  0  0  0
   -3.7818   -2.7684   -7.1902 C   0  0  0  0  0  0  0  0  0  0  0  0
   -2.5659   -2.2259   -6.8179 C   0  0  0  0  0  0  0  0  0  0  0  0
   -2.5304   -1.0817   -6.0294 C   0  0  0  0  0  0  0  0  0  0  0  0
   -3.7611   -3.8879   -7.9719 O   0  0  0  0  0  0  0  0  0  0  0  0
   -3.0856   -3.8648   -9.2228 C   0  0  0  0  0  0  0  0  0  0  0  0
   -3.2081    1.9073   -1.5195 O   0  0  0  0  0  0  0  0  0  0  0  0
   -2.4960    2.9598   -0.9146 C   0  0  0  0  0  0  0  0  0  0  0  0
   -3.2878    3.4993    0.2665 C   0  0  0  0  0  0  0  0  0  0  0  0
   -2.8839    4.8852    0.7333 C   0  0  0  0  0  0  0  0  0  0  0  0
   -1.1484    2.4356   -0.4688 C   0  0  0  0  0  0  0  0  0  0  0  0
   -0.9692    0.9679   -0.6772 C   0  0  0  0  0  0  0  0  0  0  0  0
    1.2157    1.5102    0.3986 C   0  0  0  0  0  0  0  0  0  0  0  0
    0.2050    0.4323    0.0919 C   0  0  0  0  0  0  0  0  0  0  0  0
 20 19  1  0
 18 20  1  0
 17 18  1  0
 14 17  1  0
 15 14  1  0
 16 15  1  0
 13 14  1  0
  1 13  1  0
  2  1  2  0
  3  1  1  0
  4  3  2  0
  5  4  1  0
  6  5  1  0
  7  6  2  0
  8  7  1  0
 11  8  1  0
 12 11  1  0
  9  8  2  0
 10  9  1  0
 10  5  2  0
M  END
> <structure>
orig_f12

> <pose>
8

> <is_reference>
0

> <rmsd_to_reference_A>
6.900

> <vina_score>
-5.7

> <minimizedAffinity>
-6.05432

> <minimizedRMSD>
0.71139

> <CNNscore>
0.5980657935

> <CNNaffinity>
3.7625808716

> <CNN_VS>
2.2502708435

> <CNNaffinity_variance>
0.8192021251

$$$$
orig_f12_pose9


 20 20  0  0  0  0  0  0  0  0999 V2000
   -4.1871   -1.5820   -6.7879 C   0  0  0  0  0  0  0  0  0  0  0  0
   -3.3831   -1.6245   -7.6934 O   0  0  0  0  0  0  0  0  0  0  0  0
   -4.0502   -0.7386   -5.5935 C   0  0  0  0  0  0  0  0  0  0  0  0
   -2.8577   -0.2058   -5.3015 C   0  0  0  0  0  0  0  0  0  0  0  0
   -2.6113    0.5510   -4.0614 C   0  0  0  0  0  0  0  0  0  0  0  0
   -1.4063    0.4977   -3.3983 C   0  0  0  0  0  0  0  0  0  0  0  0
   -1.1973    1.2512   -2.2546 C   0  0  0  0  0  0  0  0  0  0  0  0
   -2.1984    2.0501   -1.7700 C   0  0  0  0  0  0  0  0  0  0  0  0
   -3.4104    2.1125   -2.4306 C   0  0  0  0  0  0  0  0  0  0  0  0
   -3.6175    1.3471   -3.5718 C   0  0  0  0  0  0  0  0  0  0  0  0
   -2.0433    2.8265   -0.6572 O   0  0  0  0  0  0  0  0  0  0  0  0
   -1.4808    2.2673    0.5232 C   0  0  0  0  0  0  0  0  0  0  0  0
   -5.2730   -2.3407   -6.7529 O   0  0  0  0  0  0  0  0  0  0  0  0
   -6.5332   -1.7277   -6.6201 C   0  0  0  0  0  0  0  0  0  0  0  0
   -6.9184   -1.0622   -7.9329 C   0  0  0  0  0  0  0  0  0  0  0  0
   -7.6493    0.2602   -7.7932 C   0  0  0  0  0  0  0  0  0  0  0  0
   -7.5448   -2.7843   -6.2318 C   0  0  0  0  0  0  0  0  0  0  0  0
   -8.3928   -2.4090   -5.0604 C   0  0  0  0  0  0  0  0  0  0  0  0
   -8.6379   -0.9113   -3.0794 C   0  0  0  0  0  0  0  0  0  0  0  0
   -7.7992   -1.2692   -4.2824 C   0  0  0  0  0  0  0  0  0  0  0  0
 20 19  1  0
 18 20  1  0
 17 18  1  0
 14 17  1  0
 15 14  1  0
 16 15  1  0
 13 14  1  0
  1 13  1  0
  2  1  2  0
  3  1  1  0
  4  3  2  0
  5  4  1  0
  6  5  1  0
  7  6  2  0
  8  7  1  0
 11  8  1  0
 12 11  1  0
  9  8  2  0
 10  9  1  0
 10  5  2  0
M  END
> <structure>
orig_f12

> <pose>
9

> <is_reference>
0

> <rmsd_to_reference_A>
9.905

> <vina_score>
-5.6

> <minimizedAffinity>
-5.46322

> <minimizedRMSD>
0.24304

> <CNNscore>
0.3287028670

> <CNNaffinity>
3.7880609035

> <CNN_VS>
1.2451465130

> <CNNaffinity_variance>
0.6830069423

$$$$
