s2_esm2_control_pose0_reference


 20 20  0  0  0  0  0  0  0  0999 V2000
   -3.7414   -0.4562    3.5234 C   0  0  0  0  0  0  0  0  0  0  0  0
   -2.5661   -0.6090    3.7247 O   0  0  0  0  0  0  0  0  0  0  0  0
   -4.4847   -1.1488    2.4400 C   0  0  0  0  0  0  0  0  0  0  0  0
   -4.2442   -0.7816    1.1498 C   0  0  0  0  0  0  0  0  0  0  0  0
   -4.8863   -1.4239   -0.0141 C   0  0  0  0  0  0  0  0  0  0  0  0
   -4.1924   -2.4223   -0.6734 C   0  0  0  0  0  0  0  0  0  0  0  0
   -4.7502   -3.0702   -1.7597 C   0  0  0  0  0  0  0  0  0  0  0  0
   -6.0026   -2.7328   -2.2022 C   0  0  0  0  0  0  0  0  0  0  0  0
   -6.6984   -1.7414   -1.5475 C   0  0  0  0  0  0  0  0  0  0  0  0
   -6.1371   -1.0891   -0.4568 C   0  0  0  0  0  0  0  0  0  0  0  0
   -6.5045   -3.4005   -3.2675 O   0  0  0  0  0  0  0  0  0  0  0  0
   -7.8321   -3.1410   -3.7055 C   0  0  0  0  0  0  0  0  0  0  0  0
   -4.4790    0.3603    4.3037 O   0  0  0  0  0  0  0  0  0  0  0  0
   -3.9518    0.8027    5.5425 C   0  0  0  0  0  0  0  0  0  0  0  0
   -3.8382    2.3251    5.5050 C   0  0  0  0  0  0  0  0  0  0  0  0
   -2.4279    2.8504    5.7092 C   0  0  0  0  0  0  0  0  0  0  0  0
   -4.8712    0.3854    6.6644 C   0  0  0  0  0  0  0  0  0  0  0  0
   -5.0822   -1.0938    6.7597 C   0  0  0  0  0  0  0  0  0  0  0  0
   -5.8021   -2.9701    8.2375 C   0  0  0  0  0  0  0  0  0  0  0  0
   -5.8893   -1.4724    7.9660 C   0  0  0  0  0  0  0  0  0  0  0  0
 20 19  1  0
 18 20  1  0
 17 18  1  0
 14 17  1  0
 15 14  1  0
 16 15  1  0
 13 14  1  0
  1 13  1  0
  2  1  2  0
  3  1  1  0
  4  3  2  0
  5  4  1  0
  6  5  1  0
  7  6  2  0
  8  7  1  0
 11  8  1  0
 12 11  1  0
  9  8  2  0
 10  9  1  0
 10  5  2  0
M  END
> <structure>
s2_esm2_control

> <pose>
0

> <is_reference>
1

> <rmsd_to_reference_A>
0.000

> <vina_score>


> <minimizedAffinity>
-4.47356

> <minimizedRMSD>
1.05054

> <CNNscore>
0.5861665606

> <CNNaffinity>
4.6113457680

> <CNN_VS>
2.7030167580

> <CNNaffinity_variance>
0.4372821748

$$$$
s2_esm2_control_pose1


 20 20  0  0  0  0  0  0  0  0999 V2000
   -4.3668    2.3558    5.2791 C   0  0  0  0  0  0  0  0  0  0  0  0
   -5.2329    3.1895    5.2946 O   0  0  0  0  0  0  0  0  0  0  0  0
   -2.9727    2.6137    5.7214 C   0  0  0  0  0  0  0  0  0  0  0  0
   -2.7660    3.5004    6.7351 C   0  0  0  0  0  0  0  0  0  0  0  0
   -1.4332    3.8071    7.2910 C   0  0  0  0  0  0  0  0  0  0  0  0
   -1.3502    4.1739    8.6219 C   0  0  0  0  0  0  0  0  0  0  0  0
   -0.1273    4.4574    9.2004 C   0  0  0  0  0  0  0  0  0  0  0  0
    1.0258    4.3800    8.4639 C   0  0  0  0  0  0  0  0  0  0  0  0
    0.9478    4.0121    7.1389 C   0  0  0  0  0  0  0  0  0  0  0  0
   -0.2811    3.7297    6.5566 C   0  0  0  0  0  0  0  0  0  0  0  0
    2.1969    4.6642    9.0787 O   0  0  0  0  0  0  0  0  0  0  0  0
    3.3566    4.9424    8.3033 C   0  0  0  0  0  0  0  0  0  0  0  0
   -4.6229    1.0966    4.8680 O   0  0  0  0  0  0  0  0  0  0  0  0
   -3.9783    0.0110    5.5102 C   0  0  0  0  0  0  0  0  0  0  0  0
   -4.8936   -0.5125    6.6148 C   0  0  0  0  0  0  0  0  0  0  0  0
   -5.1595   -2.0067    6.5496 C   0  0  0  0  0  0  0  0  0  0  0  0
   -3.7082   -1.0846    4.5077 C   0  0  0  0  0  0  0  0  0  0  0  0
   -3.4712   -0.5897    3.1152 C   0  0  0  0  0  0  0  0  0  0  0  0
   -5.2179   -2.3403    2.7844 C   0  0  0  0  0  0  0  0  0  0  0  0
   -4.3339   -1.2964    2.1107 C   0  0  0  0  0  0  0  0  0  0  0  0
 20 19  1  0
 18 20  1  0
 17 18  1  0
 14 17  1  0
 15 14  1  0
 16 15  1  0
 13 14  1  0
  1 13  1  0
  2  1  2  0
  3  1  1  0
  4  3  2  0
  5  4  1  0
  6  5  1  0
  7  6  2  0
  8  7  1  0
 11  8  1  0
 12 11  1  0
  9  8  2  0
 10  9  1  0
 10  5  2  0
M  END
> <structure>
s2_esm2_control

> <pose>
1

> <is_reference>
0

> <rmsd_to_reference_A>
9.888

> <vina_score>
-5.0

> <minimizedAffinity>
-5.05411

> <minimizedRMSD>
0.10551

> <CNNscore>
0.6810163260

> <CNNaffinity>
4.6152820587

> <CNN_VS>
3.1430823803

> <CNNaffinity_variance>
0.2318827510

$$$$
s2_esm2_control_pose2


 20 20  0  0  0  0  0  0  0  0999 V2000
   -2.8460    4.4471    6.5220 C   0  0  0  0  0  0  0  0  0  0  0  0
   -3.7123    5.2806    6.5599 O   0  0  0  0  0  0  0  0  0  0  0  0
   -3.1035    2.9898    6.6456 C   0  0  0  0  0  0  0  0  0  0  0  0
   -3.7209    2.3499    5.6128 C   0  0  0  0  0  0  0  0  0  0  0  0
   -3.9924    0.8988    5.5994 C   0  0  0  0  0  0  0  0  0  0  0  0
   -3.4399    0.1413    4.5825 C   0  0  0  0  0  0  0  0  0  0  0  0
   -3.6464   -1.2250    4.5268 C   0  0  0  0  0  0  0  0  0  0  0  0
   -4.4049   -1.8517    5.4813 C   0  0  0  0  0  0  0  0  0  0  0  0
   -4.9555   -1.1022    6.4968 C   0  0  0  0  0  0  0  0  0  0  0  0
   -4.7489    0.2702    6.5517 C   0  0  0  0  0  0  0  0  0  0  0  0
   -4.5734   -3.1910    5.3832 O   0  0  0  0  0  0  0  0  0  0  0  0
   -4.5532   -3.9956    6.5563 C   0  0  0  0  0  0  0  0  0  0  0  0
   -1.5552    4.7956    6.3387 O   0  0  0  0  0  0  0  0  0  0  0  0
   -0.5861    3.7843    6.1229 C   0  0  0  0  0  0  0  0  0  0  0  0
   -0.2347    3.7597    4.6369 C   0  0  0  0  0  0  0  0  0  0  0  0
   -0.3163    5.1131    3.9537 C   0  0  0  0  0  0  0  0  0  0  0  0
    0.6498    4.0841    6.9351 C   0  0  0  0  0  0  0  0  0  0  0  0
    0.6257    3.5056    8.3166 C   0  0  0  0  0  0  0  0  0  0  0  0
   -1.1015    4.4448    9.8516 C   0  0  0  0  0  0  0  0  0  0  0  0
    0.3377    4.5454    9.3581 C   0  0  0  0  0  0  0  0  0  0  0  0
 20 19  1  0
 18 20  1  0
 17 18  1  0
 14 17  1  0
 15 14  1  0
 16 15  1  0
 13 14  1  0
  1 13  1  0
  2  1  2  0
  3  1  1  0
  4  3  2  0
  5  4  1  0
  6  5  1  0
  7  6  2  0
  8  7  1  0
 11  8  1  0
 12 11  1  0
  9  8  2  0
 10  9  1  0
 10  5  2  0
M  END
> <structure>
s2_esm2_control

> <pose>
2

> <is_reference>
0

> <rmsd_to_reference_A>
7.725

> <vina_score>
-5.0

> <minimizedAffinity>
-5.03788

> <minimizedRMSD>
0.20864

> <CNNscore>
0.4169652164

> <CNNaffinity>
3.9995648861

> <CNN_VS>
1.6676794291

> <CNNaffinity_variance>
0.7012509704

$$$$
s2_esm2_control_pose3


 20 20  0  0  0  0  0  0  0  0999 V2000
   -2.3007    4.2845    5.8620 C   0  0  0  0  0  0  0  0  0  0  0  0
   -2.8425    5.0736    5.1350 O   0  0  0  0  0  0  0  0  0  0  0  0
   -2.4249    2.8123    5.7122 C   0  0  0  0  0  0  0  0  0  0  0  0
   -3.6625    2.2507    5.8117 C   0  0  0  0  0  0  0  0  0  0  0  0
   -3.9209    0.8077    5.6387 C   0  0  0  0  0  0  0  0  0  0  0  0
   -4.6984    0.1660    6.5855 C   0  0  0  0  0  0  0  0  0  0  0  0
   -4.9860   -1.1810    6.4668 C   0  0  0  0  0  0  0  0  0  0  0  0
   -4.5042   -1.9041    5.4066 C   0  0  0  0  0  0  0  0  0  0  0  0
   -3.7318   -1.2683    4.4608 C   0  0  0  0  0  0  0  0  0  0  0  0
   -3.4411    0.0847    4.5805 C   0  0  0  0  0  0  0  0  0  0  0  0
   -4.8190   -3.2182    5.3357 O   0  0  0  0  0  0  0  0  0  0  0  0
   -4.4409   -4.0963    6.3883 C   0  0  0  0  0  0  0  0  0  0  0  0
   -1.5097    4.7006    6.8716 O   0  0  0  0  0  0  0  0  0  0  0  0
   -0.5944    3.7922    7.4601 C   0  0  0  0  0  0  0  0  0  0  0  0
    0.7952    4.0642    6.8877 C   0  0  0  0  0  0  0  0  0  0  0  0
    1.8923    4.1575    7.9325 C   0  0  0  0  0  0  0  0  0  0  0  0
   -0.5779    3.9855    8.9566 C   0  0  0  0  0  0  0  0  0  0  0  0
   -1.9382    4.0120    9.5820 C   0  0  0  0  0  0  0  0  0  0  0  0
   -0.5656    5.3196   11.2033 C   0  0  0  0  0  0  0  0  0  0  0  0
   -1.9530    4.7866   10.8664 C   0  0  0  0  0  0  0  0  0  0  0  0
 20 19  1  0
 18 20  1  0
 17 18  1  0
 14 17  1  0
 15 14  1  0
 16 15  1  0
 13 14  1  0
  1 13  1  0
  2  1  2  0
  3  1  1  0
  4  3  2  0
  5  4  1  0
  6  5  1  0
  7  6  2  0
  8  7  1  0
 11  8  1  0
 12 11  1  0
  9  8  2  0
 10  9  1  0
 10  5  2  0
M  END
> <structure>
s2_esm2_control

> <pose>
3

> <is_reference>
0

> <rmsd_to_reference_A>
7.824

> <vina_score>
-4.9

> <minimizedAffinity>
-5.09942

> <minimizedRMSD>
0.31560

> <CNNscore>
0.3271405101

> <CNNaffinity>
3.7874870300

> <CNN_VS>
1.2390404940

> <CNNaffinity_variance>
0.6637541652

$$$$
s2_esm2_control_pose4


 20 20  0  0  0  0  0  0  0  0999 V2000
   -5.0761   -3.3124   -2.4113 C   0  0  0  0  0  0  0  0  0  0  0  0
   -6.1508   -3.0865   -2.9002 O   0  0  0  0  0  0  0  0  0  0  0  0
   -4.6010   -2.6885   -1.1496 C   0  0  0  0  0  0  0  0  0  0  0  0
   -5.3585   -2.8393   -0.0259 C   0  0  0  0  0  0  0  0  0  0  0  0
   -4.9720   -2.3040    1.2947 C   0  0  0  0  0  0  0  0  0  0  0  0
   -4.0996   -1.2318    1.3345 C   0  0  0  0  0  0  0  0  0  0  0  0
   -3.7150   -0.6800    2.5426 C   0  0  0  0  0  0  0  0  0  0  0  0
   -4.1938   -1.1868    3.7225 C   0  0  0  0  0  0  0  0  0  0  0  0
   -5.0652   -2.2521    3.6870 C   0  0  0  0  0  0  0  0  0  0  0  0
   -5.4498   -2.8088    2.4737 C   0  0  0  0  0  0  0  0  0  0  0  0
   -3.7895   -0.6068    4.8769 O   0  0  0  0  0  0  0  0  0  0  0  0
   -3.8413    0.8072    5.0162 C   0  0  0  0  0  0  0  0  0  0  0  0
   -4.2224   -4.1860   -2.9838 O   0  0  0  0  0  0  0  0  0  0  0  0
   -3.7671   -3.9495   -4.3055 C   0  0  0  0  0  0  0  0  0  0  0  0
   -2.2560   -3.7380   -4.2676 C   0  0  0  0  0  0  0  0  0  0  0  0
   -1.5785   -4.3030   -3.0307 C   0  0  0  0  0  0  0  0  0  0  0  0
   -4.0972   -5.1370   -5.1772 C   0  0  0  0  0  0  0  0  0  0  0  0
   -4.9513   -4.8040   -6.3608 C   0  0  0  0  0  0  0  0  0  0  0  0
   -5.4226   -2.9650   -7.9775 C   0  0  0  0  0  0  0  0  0  0  0  0
   -5.1397   -3.3252   -6.5237 C   0  0  0  0  0  0  0  0  0  0  0  0
 20 19  1  0
 18 20  1  0
 17 18  1  0
 14 17  1  0
 15 14  1  0
 16 15  1  0
 13 14  1  0
  1 13  1  0
  2  1  2  0
  3  1  1  0
  4  3  2  0
  5  4  1  0
  6  5  1  0
  7  6  2  0
  8  7  1  0
 11  8  1  0
 12 11  1  0
  9  8  2  0
 10  9  1  0
 10  5  2  0
M  END
> <structure>
s2_esm2_control

> <pose>
4

> <is_reference>
0

> <rmsd_to_reference_A>
9.116

> <vina_score>
-4.9

> <minimizedAffinity>
-5.15563

> <minimizedRMSD>
0.24992

> <CNNscore>
0.6968315244

> <CNNaffinity>
4.5415368080

> <CNN_VS>
3.1646859646

> <CNNaffinity_variance>
0.1725379080

$$$$
s2_esm2_control_pose5


 20 20  0  0  0  0  0  0  0  0999 V2000
   -6.1735   -3.7370   -3.3662 C   0  0  0  0  0  0  0  0  0  0  0  0
   -7.0657   -4.5416   -3.3967 O   0  0  0  0  0  0  0  0  0  0  0  0
   -5.9265   -2.8288   -2.2167 C   0  0  0  0  0  0  0  0  0  0  0  0
   -5.2482   -3.3151   -1.1399 C   0  0  0  0  0  0  0  0  0  0  0  0
   -4.9034   -2.5006    0.0425 C   0  0  0  0  0  0  0  0  0  0  0  0
   -5.3446   -2.9285    1.2809 C   0  0  0  0  0  0  0  0  0  0  0  0
   -5.0392   -2.2148    2.4250 C   0  0  0  0  0  0  0  0  0  0  0  0
   -4.2927   -1.0689    2.3498 C   0  0  0  0  0  0  0  0  0  0  0  0
   -3.8486   -0.6392    1.1185 C   0  0  0  0  0  0  0  0  0  0  0  0
   -4.1580   -1.3558   -0.0307 C   0  0  0  0  0  0  0  0  0  0  0  0
   -4.0172   -0.4095    3.4994 O   0  0  0  0  0  0  0  0  0  0  0  0
   -3.4983   -1.1179    4.6170 C   0  0  0  0  0  0  0  0  0  0  0  0
   -5.3086   -3.6212   -4.3945 O   0  0  0  0  0  0  0  0  0  0  0  0
   -4.8500   -4.7889   -5.0527 C   0  0  0  0  0  0  0  0  0  0  0  0
   -5.0028   -4.5882   -6.5594 C   0  0  0  0  0  0  0  0  0  0  0  0
   -5.2018   -3.1424   -6.9784 C   0  0  0  0  0  0  0  0  0  0  0  0
   -3.3986   -5.0276   -4.7130 C   0  0  0  0  0  0  0  0  0  0  0  0
   -2.6350   -3.7804   -4.3928 C   0  0  0  0  0  0  0  0  0  0  0  0
   -0.8916   -4.8675   -2.9783 C   0  0  0  0  0  0  0  0  0  0  0  0
   -2.0119   -3.8342   -3.0299 C   0  0  0  0  0  0  0  0  0  0  0  0
 20 19  1  0
 18 20  1  0
 17 18  1  0
 14 17  1  0
 15 14  1  0
 16 15  1  0
 13 14  1  0
  1 13  1  0
  2  1  2  0
  3  1  1  0
  4  3  2  0
  5  4  1  0
  6  5  1  0
  7  6  2  0
  8  7  1  0
 11  8  1  0
 12 11  1  0
  9  8  2  0
 10  9  1  0
 10  5  2  0
M  END
> <structure>
s2_esm2_control

> <pose>
5

> <is_reference>
0

> <rmsd_to_reference_A>
8.761

> <vina_score>
-4.9

> <minimizedAffinity>
-5.05214

> <minimizedRMSD>
0.37627

> <CNNscore>
0.3436493874

> <CNNaffinity>
4.1197328568

> <CNN_VS>
1.4157437086

> <CNNaffinity_variance>
0.4125316143

$$$$
s2_esm2_control_pose6


 20 20  0  0  0  0  0  0  0  0999 V2000
   -6.4097   -2.6179   -0.2879 C   0  0  0  0  0  0  0  0  0  0  0  0
   -7.5562   -2.6742   -0.6433 O   0  0  0  0  0  0  0  0  0  0  0  0
   -5.3575   -3.5553   -0.7577 C   0  0  0  0  0  0  0  0  0  0  0  0
   -4.8721   -3.4058   -2.0226 C   0  0  0  0  0  0  0  0  0  0  0  0
   -3.7978   -4.2452   -2.5881 C   0  0  0  0  0  0  0  0  0  0  0  0
   -2.6138   -3.6311   -2.9543 C   0  0  0  0  0  0  0  0  0  0  0  0
   -1.5670   -4.3702   -3.4748 C   0  0  0  0  0  0  0  0  0  0  0  0
   -1.6863   -5.7258   -3.6357 C   0  0  0  0  0  0  0  0  0  0  0  0
   -2.8613   -6.3419   -3.2698 C   0  0  0  0  0  0  0  0  0  0  0  0
   -3.9141   -5.5998   -2.7492 C   0  0  0  0  0  0  0  0  0  0  0  0
   -0.6302   -6.4022   -4.1458 O   0  0  0  0  0  0  0  0  0  0  0  0
    0.6897   -5.9145   -3.9433 C   0  0  0  0  0  0  0  0  0  0  0  0
   -5.9940   -1.6600    0.5665 O   0  0  0  0  0  0  0  0  0  0  0  0
   -4.6748   -1.7118    1.0814 C   0  0  0  0  0  0  0  0  0  0  0  0
   -3.9125   -0.4846    0.5870 C   0  0  0  0  0  0  0  0  0  0  0  0
   -4.7574    0.4955   -0.2093 C   0  0  0  0  0  0  0  0  0  0  0  0
   -4.7174   -1.7131    2.5898 C   0  0  0  0  0  0  0  0  0  0  0  0
   -3.7459   -0.7689    3.2278 C   0  0  0  0  0  0  0  0  0  0  0  0
   -4.2507   -0.2082    5.6050 C   0  0  0  0  0  0  0  0  0  0  0  0
   -3.4759   -1.1197    4.6603 C   0  0  0  0  0  0  0  0  0  0  0  0
 20 19  1  0
 18 20  1  0
 17 18  1  0
 14 17  1  0
 15 14  1  0
 16 15  1  0
 13 14  1  0
  1 13  1  0
  2  1  2  0
  3  1  1  0
  4  3  2  0
  5  4  1  0
  6  5  1  0
  7  6  2  0
  8  7  1  0
 11  8  1  0
 12 11  1  0
  9  8  2  0
 10  9  1  0
 10  5  2  0
M  END
> <structure>
s2_esm2_control

> <pose>
6

> <is_reference>
0

> <rmsd_to_reference_A>
5.132

> <vina_score>
-4.6

> <minimizedAffinity>
-4.84208

> <minimizedRMSD>
0.15102

> <CNNscore>
0.7515521049

> <CNNaffinity>
5.1652641296

> <CNN_VS>
3.8819651604

> <CNNaffinity_variance>
0.3524337709

$$$$
s2_esm2_control_pose7


 20 20  0  0  0  0  0  0  0  0999 V2000
   -5.5506   -3.7416   -2.6531 C   0  0  0  0  0  0  0  0  0  0  0  0
   -6.4744   -4.5029   -2.5491 O   0  0  0  0  0  0  0  0  0  0  0  0
   -5.0693   -2.8779   -1.5446 C   0  0  0  0  0  0  0  0  0  0  0  0
   -5.4671   -3.1704   -0.2748 C   0  0  0  0  0  0  0  0  0  0  0  0
   -5.0227   -2.4145    0.9127 C   0  0  0  0  0  0  0  0  0  0  0  0
   -5.4626   -2.8345    2.1560 C   0  0  0  0  0  0  0  0  0  0  0  0
   -5.0661   -2.1747    3.3038 C   0  0  0  0  0  0  0  0  0  0  0  0
   -4.2298   -1.0917    3.2303 C   0  0  0  0  0  0  0  0  0  0  0  0
   -3.7869   -0.6725    1.9960 C   0  0  0  0  0  0  0  0  0  0  0  0
   -4.1864   -1.3335    0.8413 C   0  0  0  0  0  0  0  0  0  0  0  0
   -3.8686   -0.4842    4.3847 O   0  0  0  0  0  0  0  0  0  0  0  0
   -4.4313   -0.9129    5.6178 C   0  0  0  0  0  0  0  0  0  0  0  0
   -4.8629   -3.6395   -3.8096 O   0  0  0  0  0  0  0  0  0  0  0  0
   -3.8260   -4.5645   -4.0872 C   0  0  0  0  0  0  0  0  0  0  0  0
   -4.1284   -5.2458   -5.4210 C   0  0  0  0  0  0  0  0  0  0  0  0
   -3.6045   -6.6664   -5.5280 C   0  0  0  0  0  0  0  0  0  0  0  0
   -2.5062   -3.8380   -4.1720 C   0  0  0  0  0  0  0  0  0  0  0  0
   -1.6674   -3.9543   -2.9364 C   0  0  0  0  0  0  0  0  0  0  0  0
    0.5596   -4.7908   -2.1868 C   0  0  0  0  0  0  0  0  0  0  0  0
   -0.6775   -5.0770   -3.0299 C   0  0  0  0  0  0  0  0  0  0  0  0
 20 19  1  0
 18 20  1  0
 17 18  1  0
 14 17  1  0
 15 14  1  0
 16 15  1  0
 13 14  1  0
  1 13  1  0
  2  1  2  0
  3  1  1  0
  4  3  2  0
  5  4  1  0
  6  5  1  0
  7  6  2  0
  8  7  1  0
 11  8  1  0
 12 11  1  0
  9  8  2  0
 10  9  1  0
 10  5  2  0
M  END
> <structure>
s2_esm2_control

> <pose>
7

> <is_reference>
0

> <rmsd_to_reference_A>
8.789

> <vina_score>
-4.6

> <minimizedAffinity>
-4.97884

> <minimizedRMSD>
0.34291

> <CNNscore>
0.5834954977

> <CNNaffinity>
4.4361934662

> <CNN_VS>
2.5884988308

> <CNNaffinity_variance>
0.3822546303

$$$$
s2_esm2_control_pose8


 20 20  0  0  0  0  0  0  0  0999 V2000
   -5.5170   -3.6937   -2.7870 C   0  0  0  0  0  0  0  0  0  0  0  0
   -6.4037   -3.3072   -3.5018 O   0  0  0  0  0  0  0  0  0  0  0  0
   -5.4970   -3.4824   -1.3173 C   0  0  0  0  0  0  0  0  0  0  0  0
   -4.7603   -2.4494   -0.8201 C   0  0  0  0  0  0  0  0  0  0  0  0
   -4.6958   -2.1115    0.6160 C   0  0  0  0  0  0  0  0  0  0  0  0
   -3.9518   -1.0080    0.9935 C   0  0  0  0  0  0  0  0  0  0  0  0
   -3.8678   -0.6346    2.3210 C   0  0  0  0  0  0  0  0  0  0  0  0
   -4.5229   -1.3524    3.2875 C   0  0  0  0  0  0  0  0  0  0  0  0
   -5.2680   -2.4493    2.9163 C   0  0  0  0  0  0  0  0  0  0  0  0
   -5.3500   -2.8263    1.5817 C   0  0  0  0  0  0  0  0  0  0  0  0
   -4.4118   -0.9416    4.5734 O   0  0  0  0  0  0  0  0  0  0  0  0
   -3.7179    0.2623    4.8750 C   0  0  0  0  0  0  0  0  0  0  0  0
   -4.4698   -4.3795   -3.2898 O   0  0  0  0  0  0  0  0  0  0  0  0
   -3.9675   -4.0424   -4.5715 C   0  0  0  0  0  0  0  0  0  0  0  0
   -2.4998   -3.6487   -4.4290 C   0  0  0  0  0  0  0  0  0  0  0  0
   -1.9233   -3.8805   -3.0430 C   0  0  0  0  0  0  0  0  0  0  0  0
   -4.0921   -5.2302   -5.4949 C   0  0  0  0  0  0  0  0  0  0  0  0
   -3.9487   -6.5530   -4.8071 C   0  0  0  0  0  0  0  0  0  0  0  0
   -1.5776   -7.2774   -4.5323 C   0  0  0  0  0  0  0  0  0  0  0  0
   -2.8366   -7.3737   -5.3880 C   0  0  0  0  0  0  0  0  0  0  0  0
 20 19  1  0
 18 20  1  0
 17 18  1  0
 14 17  1  0
 15 14  1  0
 16 15  1  0
 13 14  1  0
  1 13  1  0
  2  1  2  0
  3  1  1  0
  4  3  2  0
  5  4  1  0
  6  5  1  0
  7  6  2  0
  8  7  1  0
 11  8  1  0
 12 11  1  0
  9  8  2  0
 10  9  1  0
 10  5  2  0
M  END
> <structure>
s2_esm2_control

> <pose>
8

> <is_reference>
0

> <rmsd_to_reference_A>
8.900

> <vina_score>
-4.5

> <minimizedAffinity>
-4.75180

> <minimizedRMSD>
0.49999

> <CNNscore>
0.5023251176

> <CNNaffinity>
4.3960800171

> <CNN_VS>
2.2082614899

> <CNNaffinity_variance>
0.2900628150

$$$$
s2_esm2_control_pose9


 20 20  0  0  0  0  0  0  0  0999 V2000
   -6.1304   -3.8846   -1.7882 C   0  0  0  0  0  0  0  0  0  0  0  0
   -7.0560   -4.5671   -2.1376 O   0  0  0  0  0  0  0  0  0  0  0  0
   -5.7959   -3.6232   -0.3640 C   0  0  0  0  0  0  0  0  0  0  0  0
   -5.1874   -2.4460   -0.0457 C   0  0  0  0  0  0  0  0  0  0  0  0
   -4.8446   -2.0531    1.3350 C   0  0  0  0  0  0  0  0  0  0  0  0
   -3.9631   -1.0022    1.5142 C   0  0  0  0  0  0  0  0  0  0  0  0
   -3.6175   -0.5791    2.7844 C   0  0  0  0  0  0  0  0  0  0  0  0
   -4.1437   -1.1964    3.8893 C   0  0  0  0  0  0  0  0  0  0  0  0
   -5.0238   -2.2414    3.7162 C   0  0  0  0  0  0  0  0  0  0  0  0
   -5.3698   -2.6674    2.4390 C   0  0  0  0  0  0  0  0  0  0  0  0
   -3.7770   -0.7417    5.1104 O   0  0  0  0  0  0  0  0  0  0  0  0
   -4.7112   -0.7513    6.1814 C   0  0  0  0  0  0  0  0  0  0  0  0
   -5.3057   -3.3170   -2.6917 O   0  0  0  0  0  0  0  0  0  0  0  0
   -4.2744   -4.0927   -3.2770 C   0  0  0  0  0  0  0  0  0  0  0  0
   -4.3107   -3.8868   -4.7898 C   0  0  0  0  0  0  0  0  0  0  0  0
   -4.6931   -5.1263   -5.5782 C   0  0  0  0  0  0  0  0  0  0  0  0
   -2.9368   -3.6527   -2.7325 C   0  0  0  0  0  0  0  0  0  0  0  0
   -1.7833   -3.9473   -3.6410 C   0  0  0  0  0  0  0  0  0  0  0  0
   -1.1162   -6.3280   -3.9694 C   0  0  0  0  0  0  0  0  0  0  0  0
   -0.9328   -5.0703   -3.1270 C   0  0  0  0  0  0  0  0  0  0  0  0
 20 19  1  0
 18 20  1  0
 17 18  1  0
 14 17  1  0
 15 14  1  0
 16 15  1  0
 13 14  1  0
  1 13  1  0
  2  1  2  0
  3  1  1  0
  4  3  2  0
  5  4  1  0
  6  5  1  0
  7  6  2  0
  8  7  1  0
 11  8  1  0
 12 11  1  0
  9  8  2  0
 10  9  1  0
 10  5  2  0
M  END
> <structure>
s2_esm2_control

> <pose>
9

> <is_reference>
0

> <rmsd_to_reference_A>
8.506

> <vina_score>
-4.5

> <minimizedAffinity>
-4.69482

> <minimizedRMSD>
0.51215

> <CNNscore>
0.4743716419

> <CNNaffinity>
4.3124909401

> <CNN_VS>
2.0457234383

> <CNNaffinity_variance>
0.3908180296

$$$$
