s3_esm2_f4_pose0_reference


 20 20  0  0  0  0  0  0  0  0999 V2000
   -0.9037   -1.1803    6.3410 C   0  0  0  0  0  0  0  0  0  0  0  0
   -0.1232   -0.4212    5.8341 O   0  0  0  0  0  0  0  0  0  0  0  0
   -0.5452   -2.5335    6.7552 C   0  0  0  0  0  0  0  0  0  0  0  0
   -1.1446   -3.1121    7.7890 C   0  0  0  0  0  0  0  0  0  0  0  0
   -0.9794   -4.5421    8.1293 C   0  0  0  0  0  0  0  0  0  0  0  0
   -0.1237   -5.3547    7.4136 C   0  0  0  0  0  0  0  0  0  0  0  0
   -0.0155   -6.6957    7.7334 C   0  0  0  0  0  0  0  0  0  0  0  0
   -0.7475   -7.2335    8.7495 C   0  0  0  0  0  0  0  0  0  0  0  0
   -1.5979   -6.4212    9.4709 C   0  0  0  0  0  0  0  0  0  0  0  0
   -1.7067   -5.0824    9.1560 C   0  0  0  0  0  0  0  0  0  0  0  0
   -0.6224   -8.5501    9.0248 O   0  0  0  0  0  0  0  0  0  0  0  0
   -1.7316   -9.2742    9.5311 C   0  0  0  0  0  0  0  0  0  0  0  0
   -2.2032   -0.8424    6.5458 O   0  0  0  0  0  0  0  0  0  0  0  0
   -2.8271    0.0676    5.6586 C   0  0  0  0  0  0  0  0  0  0  0  0
   -4.0435   -0.5701    5.0301 C   0  0  0  0  0  0  0  0  0  0  0  0
   -4.5026   -1.8300    5.7024 C   0  0  0  0  0  0  0  0  0  0  0  0
   -3.2468    1.3112    6.4298 C   0  0  0  0  0  0  0  0  0  0  0  0
   -2.1393    2.3257    6.4853 C   0  0  0  0  0  0  0  0  0  0  0  0
   -1.5473    4.7437    6.2702 C   0  0  0  0  0  0  0  0  0  0  0  0
   -2.6216    3.6791    6.0270 C   0  0  0  0  0  0  0  0  0  0  0  0
 20 19  1  0
 18 20  1  0
 17 18  1  0
 14 17  1  0
 15 14  1  0
 16 15  1  0
 13 14  1  0
  1 13  1  0
  2  1  2  0
  3  1  1  0
  4  3  2  0
  5  4  1  0
  6  5  1  0
  7  6  2  0
  8  7  1  0
 11  8  1  0
 12 11  1  0
  9  8  2  0
 10  9  1  0
 10  5  2  0
M  END
> <structure>
s3_esm2_f4

> <pose>
0

> <is_reference>
1

> <rmsd_to_reference_A>
0.000

> <vina_score>


> <minimizedAffinity>
-5.03717

> <minimizedRMSD>
1.15227

> <CNNscore>
0.5509139895

> <CNNaffinity>
5.1753997803

> <CNN_VS>
2.8512001038

> <CNNaffinity_variance>
0.0579710007

$$$$
s3_esm2_f4_pose1


 20 20  0  0  0  0  0  0  0  0999 V2000
   -0.0050   -6.4062    7.7354 C   0  0  0  0  0  0  0  0  0  0  0  0
    0.6455   -7.0285    6.9408 O   0  0  0  0  0  0  0  0  0  0  0  0
   -0.2311   -4.9680    7.6287 C   0  0  0  0  0  0  0  0  0  0  0  0
   -0.8252   -4.4473    6.5609 C   0  0  0  0  0  0  0  0  0  0  0  0
   -1.2677   -3.0385    6.4818 C   0  0  0  0  0  0  0  0  0  0  0  0
   -2.6070   -2.7102    6.4341 C   0  0  0  0  0  0  0  0  0  0  0  0
   -2.9909   -1.3861    6.3255 C   0  0  0  0  0  0  0  0  0  0  0  0
   -2.0613   -0.3924    6.2623 C   0  0  0  0  0  0  0  0  0  0  0  0
   -0.7211   -0.7176    6.3171 C   0  0  0  0  0  0  0  0  0  0  0  0
   -0.3353   -2.0377    6.4277 C   0  0  0  0  0  0  0  0  0  0  0  0
   -2.4739    0.8886    6.1465 O   0  0  0  0  0  0  0  0  0  0  0  0
   -3.1596    1.5103    7.2217 C   0  0  0  0  0  0  0  0  0  0  0  0
   -0.5657   -6.9959    8.8223 O   0  0  0  0  0  0  0  0  0  0  0  0
   -1.8452   -6.5708    9.2551 C   0  0  0  0  0  0  0  0  0  0  0  0
   -2.8505   -7.6846    9.0790 C   0  0  0  0  0  0  0  0  0  0  0  0
   -2.4696   -8.9765    9.7399 C   0  0  0  0  0  0  0  0  0  0  0  0
   -1.7729   -6.1803   10.7245 C   0  0  0  0  0  0  0  0  0  0  0  0
   -2.6612   -5.0054   11.0270 C   0  0  0  0  0  0  0  0  0  0  0  0
   -3.0743   -2.5854   10.5629 C   0  0  0  0  0  0  0  0  0  0  0  0
   -2.4021   -3.8703   10.0688 C   0  0  0  0  0  0  0  0  0  0  0  0
 20 19  1  0
 18 20  1  0
 17 18  1  0
 14 17  1  0
 15 14  1  0
 16 15  1  0
 13 14  1  0
  1 13  1  0
  2  1  2  0
  3  1  1  0
  4  3  2  0
  5  4  1  0
  6  5  1  0
  7  6  2  0
  8  7  1  0
 11  8  1  0
 12 11  1  0
  9  8  2  0
 10  9  1  0
 10  5  2  0
M  END
> <structure>
s3_esm2_f4

> <pose>
1

> <is_reference>
0

> <rmsd_to_reference_A>
7.409

> <vina_score>
-6.0

> <minimizedAffinity>
-6.04927

> <minimizedRMSD>
0.17161

> <CNNscore>
0.2161599845

> <CNNaffinity>
4.1462750435

> <CNN_VS>
0.8962587714

> <CNNaffinity_variance>
0.3877136707

$$$$
s3_esm2_f4_pose2


 20 20  0  0  0  0  0  0  0  0999 V2000
    0.2714   -6.8054    7.2221 C   0  0  0  0  0  0  0  0  0  0  0  0
    0.6428   -7.4627    6.2883 O   0  0  0  0  0  0  0  0  0  0  0  0
   -0.4850   -5.5650    7.0720 C   0  0  0  0  0  0  0  0  0  0  0  0
   -0.2741   -4.5356    7.8832 C   0  0  0  0  0  0  0  0  0  0  0  0
   -0.8505   -3.1919    7.6591 C   0  0  0  0  0  0  0  0  0  0  0  0
   -0.4906   -2.4317    6.5656 C   0  0  0  0  0  0  0  0  0  0  0  0
   -1.0202   -1.1654    6.4005 C   0  0  0  0  0  0  0  0  0  0  0  0
   -1.8956   -0.6496    7.3078 C   0  0  0  0  0  0  0  0  0  0  0  0
   -2.2625   -1.4109    8.3983 C   0  0  0  0  0  0  0  0  0  0  0  0
   -1.7379   -2.6762    8.5654 C   0  0  0  0  0  0  0  0  0  0  0  0
   -2.3832    0.5963    7.1180 O   0  0  0  0  0  0  0  0  0  0  0  0
   -1.5199    1.6334    6.6837 C   0  0  0  0  0  0  0  0  0  0  0  0
    0.5517   -7.1557    8.5033 O   0  0  0  0  0  0  0  0  0  0  0  0
   -0.3444   -8.0020    9.1990 C   0  0  0  0  0  0  0  0  0  0  0  0
    0.3537   -9.2798    9.6029 C   0  0  0  0  0  0  0  0  0  0  0  0
   -0.1690   -9.9027   10.8637 C   0  0  0  0  0  0  0  0  0  0  0  0
   -0.8487   -7.2842   10.4428 C   0  0  0  0  0  0  0  0  0  0  0  0
   -2.2301   -6.7283   10.2365 C   0  0  0  0  0  0  0  0  0  0  0  0
   -4.0442   -8.4191    9.9353 C   0  0  0  0  0  0  0  0  0  0  0  0
   -2.9995   -7.5482    9.2317 C   0  0  0  0  0  0  0  0  0  0  0  0
 20 19  1  0
 18 20  1  0
 17 18  1  0
 14 17  1  0
 15 14  1  0
 16 15  1  0
 13 14  1  0
  1 13  1  0
  2  1  2  0
  3  1  1  0
  4  3  2  0
  5  4  1  0
  6  5  1  0
  7  6  2  0
  8  7  1  0
 11  8  1  0
 12 11  1  0
  9  8  2  0
 10  9  1  0
 10  5  2  0
M  END
> <structure>
s3_esm2_f4

> <pose>
2

> <is_reference>
0

> <rmsd_to_reference_A>
8.531

> <vina_score>
-5.7

> <minimizedAffinity>
-5.61792

> <minimizedRMSD>
0.12197

> <CNNscore>
0.3446419537

> <CNNaffinity>
4.3832511902

> <CNN_VS>
1.5106523037

> <CNNaffinity_variance>
0.1946600676

$$$$
s3_esm2_f4_pose3


 20 20  0  0  0  0  0  0  0  0999 V2000
   -0.0696   -6.2601    7.0966 C   0  0  0  0  0  0  0  0  0  0  0  0
    0.5738   -6.9807    6.3828 O   0  0  0  0  0  0  0  0  0  0  0  0
   -0.7392   -5.0546    6.6176 C   0  0  0  0  0  0  0  0  0  0  0  0
   -0.6968   -3.9275    7.3180 C   0  0  0  0  0  0  0  0  0  0  0  0
   -1.1715   -2.6274    6.7958 C   0  0  0  0  0  0  0  0  0  0  0  0
   -0.2874   -1.6125    6.4888 C   0  0  0  0  0  0  0  0  0  0  0  0
   -0.7623   -0.3963    6.0343 C   0  0  0  0  0  0  0  0  0  0  0  0
   -2.0995   -0.1786    5.8863 C   0  0  0  0  0  0  0  0  0  0  0  0
   -2.9846   -1.1943    6.1843 C   0  0  0  0  0  0  0  0  0  0  0  0
   -2.5137   -2.4105    6.6358 C   0  0  0  0  0  0  0  0  0  0  0  0
   -2.5263    1.0267    5.4497 O   0  0  0  0  0  0  0  0  0  0  0  0
   -3.9082    1.2452    5.2195 C   0  0  0  0  0  0  0  0  0  0  0  0
   -0.2037   -6.5023    8.4266 O   0  0  0  0  0  0  0  0  0  0  0  0
   -0.9390   -7.6354    8.8506 C   0  0  0  0  0  0  0  0  0  0  0  0
   -0.1609   -8.3975    9.8972 C   0  0  0  0  0  0  0  0  0  0  0  0
   -0.8119   -9.6709   10.3510 C   0  0  0  0  0  0  0  0  0  0  0  0
   -2.2679   -7.1804    9.4367 C   0  0  0  0  0  0  0  0  0  0  0  0
   -2.1108   -5.9279   10.2522 C   0  0  0  0  0  0  0  0  0  0  0  0
   -3.4569   -7.4176   11.7395 C   0  0  0  0  0  0  0  0  0  0  0  0
   -2.6476   -6.1206   11.6484 C   0  0  0  0  0  0  0  0  0  0  0  0
 20 19  1  0
 18 20  1  0
 17 18  1  0
 14 17  1  0
 15 14  1  0
 16 15  1  0
 13 14  1  0
  1 13  1  0
  2  1  2  0
  3  1  1  0
  4  3  2  0
  5  4  1  0
  6  5  1  0
  7  6  2  0
  8  7  1  0
 11  8  1  0
 12 11  1  0
  9  8  2  0
 10  9  1  0
 10  5  2  0
M  END
> <structure>
s3_esm2_f4

> <pose>
3

> <is_reference>
0

> <rmsd_to_reference_A>
8.292

> <vina_score>
-5.7

> <minimizedAffinity>
-5.78666

> <minimizedRMSD>
0.13212

> <CNNscore>
0.3475273848

> <CNNaffinity>
4.4022812843

> <CNN_VS>
1.5299133062

> <CNNaffinity_variance>
0.1933858842

$$$$
s3_esm2_f4_pose4


 20 20  0  0  0  0  0  0  0  0999 V2000
   -0.1586   -6.1018    7.7029 C   0  0  0  0  0  0  0  0  0  0  0  0
    0.8659   -6.6437    7.3883 O   0  0  0  0  0  0  0  0  0  0  0  0
   -0.3624   -4.6598    7.5934 C   0  0  0  0  0  0  0  0  0  0  0  0
   -0.8442   -4.1223    6.4797 C   0  0  0  0  0  0  0  0  0  0  0  0
   -1.2678   -2.7086    6.3761 C   0  0  0  0  0  0  0  0  0  0  0  0
   -0.3434   -1.6854    6.3241 C   0  0  0  0  0  0  0  0  0  0  0  0
   -0.7691   -0.3717    6.2614 C   0  0  0  0  0  0  0  0  0  0  0  0
   -2.0976   -0.0668    6.2537 C   0  0  0  0  0  0  0  0  0  0  0  0
   -3.0241   -1.0881    6.2987 C   0  0  0  0  0  0  0  0  0  0  0  0
   -2.6023   -2.4008    6.3584 C   0  0  0  0  0  0  0  0  0  0  0  0
   -2.4740    1.2298    6.2031 O   0  0  0  0  0  0  0  0  0  0  0  0
   -1.6192    2.2350    6.7208 C   0  0  0  0  0  0  0  0  0  0  0  0
   -1.2081   -6.7928    8.2165 O   0  0  0  0  0  0  0  0  0  0  0  0
   -1.1141   -7.3155    9.5294 C   0  0  0  0  0  0  0  0  0  0  0  0
   -2.3310   -6.9232   10.3338 C   0  0  0  0  0  0  0  0  0  0  0  0
   -2.3642   -5.4825   10.7476 C   0  0  0  0  0  0  0  0  0  0  0  0
   -1.0194   -8.8330    9.4584 C   0  0  0  0  0  0  0  0  0  0  0  0
    0.3453   -9.3203    9.8573 C   0  0  0  0  0  0  0  0  0  0  0  0
    0.2770  -10.1188    7.4906 C   0  0  0  0  0  0  0  0  0  0  0  0
    0.8531  -10.3592    8.8902 C   0  0  0  0  0  0  0  0  0  0  0  0
 20 19  1  0
 18 20  1  0
 17 18  1  0
 14 17  1  0
 15 14  1  0
 16 15  1  0
 13 14  1  0
  1 13  1  0
  2  1  2  0
  3  1  1  0
  4  3  2  0
  5  4  1  0
  6  5  1  0
  7  6  2  0
  8  7  1  0
 11  8  1  0
 12 11  1  0
  9  8  2  0
 10  9  1  0
 10  5  2  0
M  END
> <structure>
s3_esm2_f4

> <pose>
4

> <is_reference>
0

> <rmsd_to_reference_A>
8.781

> <vina_score>
-5.5

> <minimizedAffinity>
-5.83036

> <minimizedRMSD>
0.13737

> <CNNscore>
0.4220679700

> <CNNaffinity>
4.5105628967

> <CNN_VS>
1.9037641287

> <CNNaffinity_variance>
0.1083728448

$$$$
s3_esm2_f4_pose5


 20 20  0  0  0  0  0  0  0  0999 V2000
   -0.6689   -2.1561    6.5862 C   0  0  0  0  0  0  0  0  0  0  0  0
    0.2220   -1.4937    6.1270 O   0  0  0  0  0  0  0  0  0  0  0  0
   -0.4421   -3.2854    7.4825 C   0  0  0  0  0  0  0  0  0  0  0  0
   -1.2824   -4.3122    7.5124 C   0  0  0  0  0  0  0  0  0  0  0  0
   -1.0038   -5.5713    8.2375 C   0  0  0  0  0  0  0  0  0  0  0  0
   -1.7048   -5.9123    9.3762 C   0  0  0  0  0  0  0  0  0  0  0  0
   -1.3988   -7.0790   10.0524 C   0  0  0  0  0  0  0  0  0  0  0  0
   -0.4072   -7.9033    9.6121 C   0  0  0  0  0  0  0  0  0  0  0  0
    0.2893   -7.5684    8.4689 C   0  0  0  0  0  0  0  0  0  0  0  0
   -0.0144   -6.4055    7.7907 C   0  0  0  0  0  0  0  0  0  0  0  0
   -0.1303   -9.0290   10.3053 O   0  0  0  0  0  0  0  0  0  0  0  0
    0.6369  -10.0583    9.7043 C   0  0  0  0  0  0  0  0  0  0  0  0
   -1.9704   -1.9177    6.2803 O   0  0  0  0  0  0  0  0  0  0  0  0
   -2.6167   -0.7923    6.8473 C   0  0  0  0  0  0  0  0  0  0  0  0
   -3.4812   -0.1136    5.8108 C   0  0  0  0  0  0  0  0  0  0  0  0
   -2.7274    0.7357    4.8309 C   0  0  0  0  0  0  0  0  0  0  0  0
   -3.4827   -1.2459    8.0140 C   0  0  0  0  0  0  0  0  0  0  0  0
   -2.7679   -1.0864    9.3263 C   0  0  0  0  0  0  0  0  0  0  0  0
   -3.7608   -2.0890   11.3880 C   0  0  0  0  0  0  0  0  0  0  0  0
   -2.8809   -2.3381   10.1591 C   0  0  0  0  0  0  0  0  0  0  0  0
 20 19  1  0
 18 20  1  0
 17 18  1  0
 14 17  1  0
 15 14  1  0
 16 15  1  0
 13 14  1  0
  1 13  1  0
  2  1  2  0
  3  1  1  0
  4  3  2  0
  5  4  1  0
  6  5  1  0
  7  6  2  0
  8  7  1  0
 11  8  1  0
 12 11  1  0
  9  8  2  0
 10  9  1  0
 10  5  2  0
M  END
> <structure>
s3_esm2_f4

> <pose>
5

> <is_reference>
0

> <rmsd_to_reference_A>
3.643

> <vina_score>
-5.5

> <minimizedAffinity>
-5.53550

> <minimizedRMSD>
0.20994

> <CNNscore>
0.3321763277

> <CNNaffinity>
4.7508611679

> <CNN_VS>
1.5781235695

> <CNNaffinity_variance>
0.0376572162

$$$$
s3_esm2_f4_pose6


 20 20  0  0  0  0  0  0  0  0999 V2000
   -0.6429   -1.8874    6.5946 C   0  0  0  0  0  0  0  0  0  0  0  0
    0.3958   -1.5264    6.1118 O   0  0  0  0  0  0  0  0  0  0  0  0
   -0.7430   -3.0094    7.5233 C   0  0  0  0  0  0  0  0  0  0  0  0
   -0.9220   -4.2481    7.0797 C   0  0  0  0  0  0  0  0  0  0  0  0
   -0.8244   -5.4441    7.9448 C   0  0  0  0  0  0  0  0  0  0  0  0
   -1.6545   -5.6097    9.0343 C   0  0  0  0  0  0  0  0  0  0  0  0
   -1.5175   -6.7218    9.8447 C   0  0  0  0  0  0  0  0  0  0  0  0
   -0.5659   -7.6632    9.5849 C   0  0  0  0  0  0  0  0  0  0  0  0
    0.2602   -7.5025    8.4922 C   0  0  0  0  0  0  0  0  0  0  0  0
    0.1241   -6.3954    7.6799 C   0  0  0  0  0  0  0  0  0  0  0  0
   -0.4554   -8.7299   10.4058 O   0  0  0  0  0  0  0  0  0  0  0  0
   -1.4407   -9.7492   10.3754 C   0  0  0  0  0  0  0  0  0  0  0  0
   -1.8230   -1.2882    6.2888 O   0  0  0  0  0  0  0  0  0  0  0  0
   -2.6303   -0.7814    7.3352 C   0  0  0  0  0  0  0  0  0  0  0  0
   -2.0799    0.5369    7.8258 C   0  0  0  0  0  0  0  0  0  0  0  0
   -1.7873    1.5313    6.7408 C   0  0  0  0  0  0  0  0  0  0  0  0
   -4.0492   -0.5798    6.8207 C   0  0  0  0  0  0  0  0  0  0  0  0
   -4.1831   -1.0141    5.3881 C   0  0  0  0  0  0  0  0  0  0  0  0
   -6.3249   -1.7993    6.4085 C   0  0  0  0  0  0  0  0  0  0  0  0
   -5.5780   -1.5127    5.1024 C   0  0  0  0  0  0  0  0  0  0  0  0
 20 19  1  0
 18 20  1  0
 17 18  1  0
 14 17  1  0
 15 14  1  0
 16 15  1  0
 13 14  1  0
  1 13  1  0
  2  1  2  0
  3  1  1  0
  4  3  2  0
  5  4  1  0
  6  5  1  0
  7  6  2  0
  8  7  1  0
 11  8  1  0
 12 11  1  0
  9  8  2  0
 10  9  1  0
 10  5  2  0
M  END
> <structure>
s3_esm2_f4

> <pose>
6

> <is_reference>
0

> <rmsd_to_reference_A>
3.555

> <vina_score>
-5.1

> <minimizedAffinity>
-5.47673

> <minimizedRMSD>
0.19172

> <CNNscore>
0.6714918613

> <CNNaffinity>
5.4752941132

> <CNN_VS>
3.6766154766

> <CNNaffinity_variance>
0.1168512478

$$$$
s3_esm2_f4_pose7


 20 20  0  0  0  0  0  0  0  0999 V2000
   -1.2227   -1.1426    6.7156 C   0  0  0  0  0  0  0  0  0  0  0  0
   -0.6736   -0.4086    5.9398 O   0  0  0  0  0  0  0  0  0  0  0  0
   -0.7679   -2.5031    6.9848 C   0  0  0  0  0  0  0  0  0  0  0  0
   -1.2778   -3.2072    7.9888 C   0  0  0  0  0  0  0  0  0  0  0  0
   -1.0162   -4.6495    8.1867 C   0  0  0  0  0  0  0  0  0  0  0  0
   -1.6452   -5.3613    9.1880 C   0  0  0  0  0  0  0  0  0  0  0  0
   -1.3549   -6.7008    9.3708 C   0  0  0  0  0  0  0  0  0  0  0  0
   -0.4472   -7.3342    8.5750 C   0  0  0  0  0  0  0  0  0  0  0  0
    0.1776   -6.6260    7.5696 C   0  0  0  0  0  0  0  0  0  0  0  0
   -0.1119   -5.2905    7.3827 C   0  0  0  0  0  0  0  0  0  0  0  0
   -0.1824   -8.6408    8.7913 O   0  0  0  0  0  0  0  0  0  0  0  0
   -0.0904   -9.1326   10.1183 C   0  0  0  0  0  0  0  0  0  0  0  0
   -2.3397   -0.7661    7.3909 O   0  0  0  0  0  0  0  0  0  0  0  0
   -3.5206   -0.4800    6.6653 C   0  0  0  0  0  0  0  0  0  0  0  0
   -3.8873   -1.6532    5.7869 C   0  0  0  0  0  0  0  0  0  0  0  0
   -5.2319   -1.5425    5.1311 C   0  0  0  0  0  0  0  0  0  0  0  0
   -4.6548   -0.2044    7.6421 C   0  0  0  0  0  0  0  0  0  0  0  0
   -4.4946   -0.9931    8.9114 C   0  0  0  0  0  0  0  0  0  0  0  0
   -6.9075   -1.4229    8.4248 C   0  0  0  0  0  0  0  0  0  0  0  0
   -5.8354   -1.3263    9.5148 C   0  0  0  0  0  0  0  0  0  0  0  0
 20 19  1  0
 18 20  1  0
 17 18  1  0
 14 17  1  0
 15 14  1  0
 16 15  1  0
 13 14  1  0
  1 13  1  0
  2  1  2  0
  3  1  1  0
  4  3  2  0
  5  4  1  0
  6  5  1  0
  7  6  2  0
  8  7  1  0
 11  8  1  0
 12 11  1  0
  9  8  2  0
 10  9  1  0
 10  5  2  0
M  END
> <structure>
s3_esm2_f4

> <pose>
7

> <is_reference>
0

> <rmsd_to_reference_A>
3.307

> <vina_score>
-5.1

> <minimizedAffinity>
-5.27788

> <minimizedRMSD>
0.20973

> <CNNscore>
0.4017554224

> <CNNaffinity>
4.7296967506

> <CNN_VS>
1.9001812935

> <CNNaffinity_variance>
0.4169254601

$$$$
s3_esm2_f4_pose8


 20 20  0  0  0  0  0  0  0  0999 V2000
   -0.1049   -6.5126    5.8299 C   0  0  0  0  0  0  0  0  0  0  0  0
    0.3439   -7.0726    6.7931 O   0  0  0  0  0  0  0  0  0  0  0  0
   -0.9261   -5.3095    5.9184 C   0  0  0  0  0  0  0  0  0  0  0  0
   -0.4728   -4.2164    6.5214 C   0  0  0  0  0  0  0  0  0  0  0  0
   -1.1635   -2.9096    6.4642 C   0  0  0  0  0  0  0  0  0  0  0  0
   -0.4557   -1.7249    6.4684 C   0  0  0  0  0  0  0  0  0  0  0  0
   -1.1302   -0.5177    6.4488 C   0  0  0  0  0  0  0  0  0  0  0  0
   -2.4923   -0.4784    6.4274 C   0  0  0  0  0  0  0  0  0  0  0  0
   -3.2012   -1.6622    6.4162 C   0  0  0  0  0  0  0  0  0  0  0  0
   -2.5317   -2.8674    6.4329 C   0  0  0  0  0  0  0  0  0  0  0  0
   -3.1157    0.7203    6.4203 O   0  0  0  0  0  0  0  0  0  0  0  0
   -3.3755    1.3732    5.1881 C   0  0  0  0  0  0  0  0  0  0  0  0
    0.0993   -6.9775    4.5696 O   0  0  0  0  0  0  0  0  0  0  0  0
    0.4164   -8.3455    4.3828 C   0  0  0  0  0  0  0  0  0  0  0  0
   -0.4272   -8.9268    3.2724 C   0  0  0  0  0  0  0  0  0  0  0  0
   -1.4866   -8.0043    2.7479 C   0  0  0  0  0  0  0  0  0  0  0  0
    1.8897   -8.4725    4.0219 C   0  0  0  0  0  0  0  0  0  0  0  0
    2.0905   -8.5216    2.5326 C   0  0  0  0  0  0  0  0  0  0  0  0
    1.8282   -6.9017    0.6482 C   0  0  0  0  0  0  0  0  0  0  0  0
    2.5009   -7.1733    1.9972 C   0  0  0  0  0  0  0  0  0  0  0  0
 20 19  1  0
 18 20  1  0
 17 18  1  0
 14 17  1  0
 15 14  1  0
 16 15  1  0
 13 14  1  0
  1 13  1  0
  2  1  2  0
  3  1  1  0
  4  3  2  0
  5  4  1  0
  6  5  1  0
  7  6  2  0
  8  7  1  0
 11  8  1  0
 12 11  1  0
  9  8  2  0
 10  9  1  0
 10  5  2  0
M  END
> <structure>
s3_esm2_f4

> <pose>
8

> <is_reference>
0

> <rmsd_to_reference_A>
8.688

> <vina_score>
-5.0

> <minimizedAffinity>
-5.29701

> <minimizedRMSD>
0.07503

> <CNNscore>
0.5964218974

> <CNNaffinity>
4.6976456642

> <CNN_VS>
2.8017787933

> <CNNaffinity_variance>
0.0359594375

$$$$
s3_esm2_f4_pose9


 20 20  0  0  0  0  0  0  0  0999 V2000
   -0.7155   -1.9221    6.9401 C   0  0  0  0  0  0  0  0  0  0  0  0
    0.1855   -1.7152    6.1736 O   0  0  0  0  0  0  0  0  0  0  0  0
   -0.7939   -3.1173    7.7745 C   0  0  0  0  0  0  0  0  0  0  0  0
   -0.8996   -4.3237    7.2299 C   0  0  0  0  0  0  0  0  0  0  0  0
   -0.7752   -5.5787    8.0026 C   0  0  0  0  0  0  0  0  0  0  0  0
   -1.5909   -5.8384    9.0845 C   0  0  0  0  0  0  0  0  0  0  0  0
   -1.4285   -7.0049    9.8084 C   0  0  0  0  0  0  0  0  0  0  0  0
   -0.4665   -7.9090    9.4706 C   0  0  0  0  0  0  0  0  0  0  0  0
    0.3455   -7.6554    8.3846 C   0  0  0  0  0  0  0  0  0  0  0  0
    0.1843   -6.4929    7.6586 C   0  0  0  0  0  0  0  0  0  0  0  0
   -0.3309   -9.0323   10.2085 O   0  0  0  0  0  0  0  0  0  0  0  0
    0.6014  -10.0269    9.8164 C   0  0  0  0  0  0  0  0  0  0  0  0
   -1.7570   -1.0601    7.0732 O   0  0  0  0  0  0  0  0  0  0  0  0
   -2.8903   -1.4585    7.8217 C   0  0  0  0  0  0  0  0  0  0  0  0
   -2.8838   -0.7854    9.1730 C   0  0  0  0  0  0  0  0  0  0  0  0
   -3.1361   -1.7076   10.3288 C   0  0  0  0  0  0  0  0  0  0  0  0
   -4.1524   -1.0678    7.0651 C   0  0  0  0  0  0  0  0  0  0  0  0
   -3.9085   -0.9966    5.5845 C   0  0  0  0  0  0  0  0  0  0  0  0
   -2.9495    0.8892    4.2550 C   0  0  0  0  0  0  0  0  0  0  0  0
   -4.1547    0.3964    5.0613 C   0  0  0  0  0  0  0  0  0  0  0  0
 20 19  1  0
 18 20  1  0
 17 18  1  0
 14 17  1  0
 15 14  1  0
 16 15  1  0
 13 14  1  0
  1 13  1  0
  2  1  2  0
  3  1  1  0
  4  3  2  0
  5  4  1  0
  6  5  1  0
  7  6  2  0
  8  7  1  0
 11  8  1  0
 12 11  1  0
  9  8  2  0
 10  9  1  0
 10  5  2  0
M  END
> <structure>
s3_esm2_f4

> <pose>
9

> <is_reference>
0

> <rmsd_to_reference_A>
3.214

> <vina_score>
-4.9

> <minimizedAffinity>
-5.39373

> <minimizedRMSD>
0.25441

> <CNNscore>
0.4105709791

> <CNNaffinity>
4.9533772469

> <CNN_VS>
2.0337128639

> <CNNaffinity_variance>
0.0383668877

$$$$
