s3_orig_f12_pose0_reference


 20 20  0  0  0  0  0  0  0  0999 V2000
   -3.5449   -3.1061    1.1947 C   0  0  0  0  0  0  0  0  0  0  0  0
   -3.5167   -4.0432    0.4392 O   0  0  0  0  0  0  0  0  0  0  0  0
   -2.6231   -2.9321    2.3413 C   0  0  0  0  0  0  0  0  0  0  0  0
   -1.3111   -2.7861    2.1752 C   0  0  0  0  0  0  0  0  0  0  0  0
   -0.3291   -2.7067    3.2861 C   0  0  0  0  0  0  0  0  0  0  0  0
    1.0095   -2.9489    3.0260 C   0  0  0  0  0  0  0  0  0  0  0  0
    1.9387   -2.9616    4.0600 C   0  0  0  0  0  0  0  0  0  0  0  0
    1.5576   -2.6732    5.3543 C   0  0  0  0  0  0  0  0  0  0  0  0
    0.2416   -2.3823    5.5985 C   0  0  0  0  0  0  0  0  0  0  0  0
   -0.6998   -2.3998    4.5701 C   0  0  0  0  0  0  0  0  0  0  0  0
    2.4478   -2.6575    6.4086 O   0  0  0  0  0  0  0  0  0  0  0  0
    3.8008   -2.9678    6.1315 C   0  0  0  0  0  0  0  0  0  0  0  0
   -4.4191   -2.2442    1.0293 O   0  0  0  0  0  0  0  0  0  0  0  0
   -5.5511   -1.5673    1.0370 C   0  0  0  0  0  0  0  0  0  0  0  0
   -5.7710   -0.8987   -0.3073 C   0  0  0  0  0  0  0  0  0  0  0  0
   -7.1812   -0.3550   -0.5077 C   0  0  0  0  0  0  0  0  0  0  0  0
   -6.7365   -2.4569    1.3766 C   0  0  0  0  0  0  0  0  0  0  0  0
   -6.9355   -2.7098    2.8348 C   0  0  0  0  0  0  0  0  0  0  0  0
   -7.8837   -4.4440    4.3642 C   0  0  0  0  0  0  0  0  0  0  0  0
   -8.1038   -3.6202    3.1141 C   0  0  0  0  0  0  0  0  0  0  0  0
 20 19  1  0
 18 20  1  0
 17 18  1  0
 14 17  1  0
 15 14  1  0
 16 15  1  0
 13 14  1  0
  1 13  1  0
  2  1  2  0
  3  1  1  0
  4  3  2  0
  5  4  1  0
  6  5  1  0
  7  6  2  0
  8  7  1  0
 11  8  1  0
 12 11  1  0
  9  8  2  0
 10  9  1  0
 10  5  2  0
M  END
> <structure>
s3_orig_f12

> <pose>
0

> <is_reference>
1

> <rmsd_to_reference_A>
0.000

> <vina_score>


> <minimizedAffinity>
-5.91057

> <minimizedRMSD>
1.24683

> <CNNscore>
0.8447919488

> <CNNaffinity>
4.9885354042

> <CNN_VS>
4.2142744064

> <CNNaffinity_variance>
0.0495697670

$$$$
s3_orig_f12_pose1


 20 20  0  0  0  0  0  0  0  0999 V2000
   -7.5842   -3.4932    2.8882 C   0  0  0  0  0  0  0  0  0  0  0  0
   -8.2300   -3.8976    3.8204 O   0  0  0  0  0  0  0  0  0  0  0  0
   -6.1201   -3.6730    2.7490 C   0  0  0  0  0  0  0  0  0  0  0  0
   -5.2579   -2.7120    3.0736 C   0  0  0  0  0  0  0  0  0  0  0  0
   -3.7904   -2.7969    2.8645 C   0  0  0  0  0  0  0  0  0  0  0  0
   -2.9386   -2.2674    3.8189 C   0  0  0  0  0  0  0  0  0  0  0  0
   -1.5642   -2.2593    3.6116 C   0  0  0  0  0  0  0  0  0  0  0  0
   -1.0176   -2.8331    2.4822 C   0  0  0  0  0  0  0  0  0  0  0  0
   -1.8615   -3.4029    1.5656 C   0  0  0  0  0  0  0  0  0  0  0  0
   -3.2429   -3.3844    1.7533 C   0  0  0  0  0  0  0  0  0  0  0  0
    0.3409   -2.8637    2.2427 O   0  0  0  0  0  0  0  0  0  0  0  0
    1.2037   -2.9477    3.3618 C   0  0  0  0  0  0  0  0  0  0  0  0
   -8.1683   -2.8568    2.0007 O   0  0  0  0  0  0  0  0  0  0  0  0
   -8.4601   -2.1875    0.9017 C   0  0  0  0  0  0  0  0  0  0  0  0
   -8.6135   -0.7107    1.2142 C   0  0  0  0  0  0  0  0  0  0  0  0
   -9.7158   -0.0196    0.4200 C   0  0  0  0  0  0  0  0  0  0  0  0
   -7.4051   -2.3863   -0.1749 C   0  0  0  0  0  0  0  0  0  0  0  0
   -6.5946   -1.1727   -0.4921 C   0  0  0  0  0  0  0  0  0  0  0  0
   -4.4506   -0.2316    0.3825 C   0  0  0  0  0  0  0  0  0  0  0  0
   -5.1148   -1.3990   -0.3160 C   0  0  0  0  0  0  0  0  0  0  0  0
 20 19  1  0
 18 20  1  0
 17 18  1  0
 14 17  1  0
 15 14  1  0
 16 15  1  0
 13 14  1  0
  1 13  1  0
  2  1  2  0
  3  1  1  0
  4  3  2  0
  5  4  1  0
  6  5  1  0
  7  6  2  0
  8  7  1  0
 11  8  1  0
 12 11  1  0
  9  8  2  0
 10  9  1  0
 10  5  2  0
M  END
> <structure>
s3_orig_f12

> <pose>
1

> <is_reference>
0

> <rmsd_to_reference_A>
4.085

> <vina_score>
-7.3

> <minimizedAffinity>
-7.45538

> <minimizedRMSD>
0.20181

> <CNNscore>
0.4087578356

> <CNNaffinity>
5.0265917778

> <CNN_VS>
2.0546588898

> <CNNaffinity_variance>
0.0674686357

$$$$
s3_orig_f12_pose2


 20 20  0  0  0  0  0  0  0  0999 V2000
   -2.1030   -2.1662    3.8324 C   0  0  0  0  0  0  0  0  0  0  0  0
   -1.7223   -1.8200    4.9211 O   0  0  0  0  0  0  0  0  0  0  0  0
   -3.4956   -2.0169    3.3505 C   0  0  0  0  0  0  0  0  0  0  0  0
   -4.4243   -2.9427    3.5787 C   0  0  0  0  0  0  0  0  0  0  0  0
   -5.8060   -2.8953    3.0378 C   0  0  0  0  0  0  0  0  0  0  0  0
   -6.1281   -1.9464    2.0826 C   0  0  0  0  0  0  0  0  0  0  0  0
   -7.4322   -1.8254    1.6182 C   0  0  0  0  0  0  0  0  0  0  0  0
   -8.4187   -2.6874    2.0536 C   0  0  0  0  0  0  0  0  0  0  0  0
   -8.0844   -3.6586    2.9590 C   0  0  0  0  0  0  0  0  0  0  0  0
   -6.7836   -3.7632    3.4517 C   0  0  0  0  0  0  0  0  0  0  0  0
   -9.7225   -2.6148    1.6076 O   0  0  0  0  0  0  0  0  0  0  0  0
  -10.5972   -3.6696    1.9620 C   0  0  0  0  0  0  0  0  0  0  0  0
   -1.2914   -2.7133    3.0736 O   0  0  0  0  0  0  0  0  0  0  0  0
   -0.4071   -2.9596    2.1265 C   0  0  0  0  0  0  0  0  0  0  0  0
    0.8590   -3.5399    2.7307 C   0  0  0  0  0  0  0  0  0  0  0  0
    1.4784   -2.6746    3.8229 C   0  0  0  0  0  0  0  0  0  0  0  0
   -0.9600   -3.9047    1.0708 C   0  0  0  0  0  0  0  0  0  0  0  0
   -1.6268   -3.2343   -0.0851 C   0  0  0  0  0  0  0  0  0  0  0  0
   -3.6825   -1.8130   -0.1109 C   0  0  0  0  0  0  0  0  0  0  0  0
   -3.1288   -3.2138    0.0401 C   0  0  0  0  0  0  0  0  0  0  0  0
 20 19  1  0
 18 20  1  0
 17 18  1  0
 14 17  1  0
 15 14  1  0
 16 15  1  0
 13 14  1  0
  1 13  1  0
  2  1  2  0
  3  1  1  0
  4  3  2  0
  5  4  1  0
  6  5  1  0
  7  6  2  0
  8  7  1  0
 11  8  1  0
 12 11  1  0
  9  8  2  0
 10  9  1  0
 10  5  2  0
M  END
> <structure>
s3_orig_f12

> <pose>
2

> <is_reference>
0

> <rmsd_to_reference_A>
7.788

> <vina_score>
-6.6

> <minimizedAffinity>
-6.85470

> <minimizedRMSD>
0.13361

> <CNNscore>
0.3405880034

> <CNNaffinity>
4.3184599876

> <CNN_VS>
1.4708156586

> <CNNaffinity_variance>
0.6563044190

$$$$
s3_orig_f12_pose3


 20 20  0  0  0  0  0  0  0  0999 V2000
   -3.6531   -2.3063    3.1902 C   0  0  0  0  0  0  0  0  0  0  0  0
   -2.7783   -2.3037    4.0170 O   0  0  0  0  0  0  0  0  0  0  0  0
   -4.9439   -3.0180    3.3452 C   0  0  0  0  0  0  0  0  0  0  0  0
   -6.0674   -2.5663    2.7942 C   0  0  0  0  0  0  0  0  0  0  0  0
   -7.4050   -3.1790    2.9952 C   0  0  0  0  0  0  0  0  0  0  0  0
   -7.6042   -4.0327    4.0682 C   0  0  0  0  0  0  0  0  0  0  0  0
   -8.8209   -4.6851    4.2339 C   0  0  0  0  0  0  0  0  0  0  0  0
   -9.8724   -4.4479    3.3718 C   0  0  0  0  0  0  0  0  0  0  0  0
   -9.6861   -3.5631    2.3433 C   0  0  0  0  0  0  0  0  0  0  0  0
   -8.4579   -2.9312    2.1534 C   0  0  0  0  0  0  0  0  0  0  0  0
  -11.1013   -5.0590    3.5080 O   0  0  0  0  0  0  0  0  0  0  0  0
  -11.2016   -6.1410    4.4156 C   0  0  0  0  0  0  0  0  0  0  0  0
   -3.4563   -1.7061    2.1254 O   0  0  0  0  0  0  0  0  0  0  0  0
   -3.3126   -1.3956    0.8510 C   0  0  0  0  0  0  0  0  0  0  0  0
   -3.2223   -2.6567    0.0118 C   0  0  0  0  0  0  0  0  0  0  0  0
   -1.9326   -3.4451    0.2111 C   0  0  0  0  0  0  0  0  0  0  0  0
   -4.4507   -0.5198    0.3537 C   0  0  0  0  0  0  0  0  0  0  0  0
   -5.5377   -1.2484   -0.3658 C   0  0  0  0  0  0  0  0  0  0  0  0
   -7.8561   -1.1322   -1.2924 C   0  0  0  0  0  0  0  0  0  0  0  0
   -6.8436   -0.4943   -0.3660 C   0  0  0  0  0  0  0  0  0  0  0  0
 20 19  1  0
 18 20  1  0
 17 18  1  0
 14 17  1  0
 15 14  1  0
 16 15  1  0
 13 14  1  0
  1 13  1  0
  2  1  2  0
  3  1  1  0
  4  3  2  0
  5  4  1  0
  6  5  1  0
  7  6  2  0
  8  7  1  0
 11  8  1  0
 12 11  1  0
  9  8  2  0
 10  9  1  0
 10  5  2  0
M  END
> <structure>
s3_orig_f12

> <pose>
3

> <is_reference>
0

> <rmsd_to_reference_A>
7.702

> <vina_score>
-6.5

> <minimizedAffinity>
-6.58527

> <minimizedRMSD>
0.15035

> <CNNscore>
0.1637904793

> <CNNaffinity>
3.9237835407

> <CNN_VS>
0.6426783800

> <CNNaffinity_variance>
0.6209310889

$$$$
s3_orig_f12_pose4


 20 20  0  0  0  0  0  0  0  0999 V2000
   -7.5843   -3.5618    2.9673 C   0  0  0  0  0  0  0  0  0  0  0  0
   -8.2179   -3.9738    3.9038 O   0  0  0  0  0  0  0  0  0  0  0  0
   -6.1144   -3.6865    2.8361 C   0  0  0  0  0  0  0  0  0  0  0  0
   -5.3010   -2.6468    3.0042 C   0  0  0  0  0  0  0  0  0  0  0  0
   -3.8319   -2.6877    2.7898 C   0  0  0  0  0  0  0  0  0  0  0  0
   -3.3330   -3.2458    1.6248 C   0  0  0  0  0  0  0  0  0  0  0  0
   -1.9616   -3.3711    1.4337 C   0  0  0  0  0  0  0  0  0  0  0  0
   -1.0717   -2.8886    2.3702 C   0  0  0  0  0  0  0  0  0  0  0  0
   -1.5703   -2.2908    3.4970 C   0  0  0  0  0  0  0  0  0  0  0  0
   -2.9443   -2.1909    3.7087 C   0  0  0  0  0  0  0  0  0  0  0  0
    0.2964   -2.9766    2.2149 O   0  0  0  0  0  0  0  0  0  0  0  0
    1.0968   -2.9043    3.3807 C   0  0  0  0  0  0  0  0  0  0  0  0
   -8.1898   -2.9658    2.0652 O   0  0  0  0  0  0  0  0  0  0  0  0
   -8.5167   -2.3761    0.9309 C   0  0  0  0  0  0  0  0  0  0  0  0
   -7.9154   -0.9847    0.8722 C   0  0  0  0  0  0  0  0  0  0  0  0
   -6.6916   -0.8737   -0.0315 C   0  0  0  0  0  0  0  0  0  0  0  0
   -8.0697   -3.1891   -0.2736 C   0  0  0  0  0  0  0  0  0  0  0  0
   -9.1544   -3.5238   -1.2438 C   0  0  0  0  0  0  0  0  0  0  0  0
  -11.2115   -4.7817   -0.5864 C   0  0  0  0  0  0  0  0  0  0  0  0
  -10.5300   -3.4310   -0.6339 C   0  0  0  0  0  0  0  0  0  0  0  0
 20 19  1  0
 18 20  1  0
 17 18  1  0
 14 17  1  0
 15 14  1  0
 16 15  1  0
 13 14  1  0
  1 13  1  0
  2  1  2  0
  3  1  1  0
  4  3  2  0
  5  4  1  0
  6  5  1  0
  7  6  2  0
  8  7  1  0
 11  8  1  0
 12 11  1  0
  9  8  2  0
 10  9  1  0
 10  5  2  0
M  END
> <structure>
s3_orig_f12

> <pose>
4

> <is_reference>
0

> <rmsd_to_reference_A>
4.039

> <vina_score>
-6.4

> <minimizedAffinity>
-6.75961

> <minimizedRMSD>
0.23788

> <CNNscore>
0.4336209297

> <CNNaffinity>
4.8515930176

> <CNN_VS>
2.1037523746

> <CNNaffinity_variance>
0.0770377442

$$$$
s3_orig_f12_pose5


 20 20  0  0  0  0  0  0  0  0999 V2000
   -5.8673   -1.4572   -0.0576 C   0  0  0  0  0  0  0  0  0  0  0  0
   -6.2669   -0.5386   -0.7244 O   0  0  0  0  0  0  0  0  0  0  0  0
   -4.4513   -1.6452    0.3390 C   0  0  0  0  0  0  0  0  0  0  0  0
   -4.0641   -2.6566    1.1128 C   0  0  0  0  0  0  0  0  0  0  0  0
   -2.6811   -2.8405    1.6209 C   0  0  0  0  0  0  0  0  0  0  0  0
   -2.3284   -2.2839    2.8388 C   0  0  0  0  0  0  0  0  0  0  0  0
   -1.0198   -2.3699    3.3020 C   0  0  0  0  0  0  0  0  0  0  0  0
   -0.0639   -3.0636    2.5890 C   0  0  0  0  0  0  0  0  0  0  0  0
   -0.4306   -3.6583    1.4104 C   0  0  0  0  0  0  0  0  0  0  0  0
   -1.7337   -3.5467    0.9267 C   0  0  0  0  0  0  0  0  0  0  0  0
    1.2411   -3.1907    3.0182 O   0  0  0  0  0  0  0  0  0  0  0  0
    1.5873   -2.5960    4.2558 C   0  0  0  0  0  0  0  0  0  0  0  0
   -6.6781   -2.3237    0.2977 O   0  0  0  0  0  0  0  0  0  0  0  0
   -7.6261   -2.9945    0.9240 C   0  0  0  0  0  0  0  0  0  0  0  0
   -7.6348   -2.6338    2.3983 C   0  0  0  0  0  0  0  0  0  0  0  0
   -6.8643   -3.6091    3.2814 C   0  0  0  0  0  0  0  0  0  0  0  0
   -8.9951   -2.7353    0.3159 C   0  0  0  0  0  0  0  0  0  0  0  0
   -9.7953   -1.6736    0.9963 C   0  0  0  0  0  0  0  0  0  0  0  0
  -10.8116    0.2251   -0.2716 C   0  0  0  0  0  0  0  0  0  0  0  0
   -9.5675   -0.3051    0.4080 C   0  0  0  0  0  0  0  0  0  0  0  0
 20 19  1  0
 18 20  1  0
 17 18  1  0
 14 17  1  0
 15 14  1  0
 16 15  1  0
 13 14  1  0
  1 13  1  0
  2  1  2  0
  3  1  1  0
  4  3  2  0
  5  4  1  0
  6  5  1  0
  7  6  2  0
  8  7  1  0
 11  8  1  0
 12 11  1  0
  9  8  2  0
 10  9  1  0
 10  5  2  0
M  END
> <structure>
s3_orig_f12

> <pose>
5

> <is_reference>
0

> <rmsd_to_reference_A>
3.548

> <vina_score>
-6.4

> <minimizedAffinity>
-6.88190

> <minimizedRMSD>
0.16855

> <CNNscore>
0.6874901056

> <CNNaffinity>
4.9999651909

> <CNN_VS>
3.4374265671

> <CNNaffinity_variance>
0.0240169708

$$$$
s3_orig_f12_pose6


 20 20  0  0  0  0  0  0  0  0999 V2000
   -3.2929   -2.5439    0.3314 C   0  0  0  0  0  0  0  0  0  0  0  0
   -2.2842   -2.8478   -0.2518 O   0  0  0  0  0  0  0  0  0  0  0  0
   -4.5437   -2.1130   -0.3355 C   0  0  0  0  0  0  0  0  0  0  0  0
   -5.2560   -1.0779    0.1024 C   0  0  0  0  0  0  0  0  0  0  0  0
   -6.5636   -0.6615   -0.4637 C   0  0  0  0  0  0  0  0  0  0  0  0
   -7.2437   -1.5248   -1.3054 C   0  0  0  0  0  0  0  0  0  0  0  0
   -8.4306   -1.1305   -1.9145 C   0  0  0  0  0  0  0  0  0  0  0  0
   -8.9846    0.1043   -1.6443 C   0  0  0  0  0  0  0  0  0  0  0  0
   -8.3355    0.9340   -0.7692 C   0  0  0  0  0  0  0  0  0  0  0  0
   -7.1291    0.5561   -0.1813 C   0  0  0  0  0  0  0  0  0  0  0  0
  -10.1673    0.5316   -2.2113 O   0  0  0  0  0  0  0  0  0  0  0  0
  -11.2126   -0.4144   -2.3442 C   0  0  0  0  0  0  0  0  0  0  0  0
   -3.2822   -2.5574    1.5703 O   0  0  0  0  0  0  0  0  0  0  0  0
   -3.3864   -2.9132    2.8358 C   0  0  0  0  0  0  0  0  0  0  0  0
   -2.3966   -2.1338    3.6817 C   0  0  0  0  0  0  0  0  0  0  0  0
   -0.9374   -2.3862    3.3230 C   0  0  0  0  0  0  0  0  0  0  0  0
   -4.7969   -2.7107    3.3644 C   0  0  0  0  0  0  0  0  0  0  0  0
   -5.8181   -3.6481    2.8083 C   0  0  0  0  0  0  0  0  0  0  0  0
   -8.0222   -2.6555    2.1746 C   0  0  0  0  0  0  0  0  0  0  0  0
   -7.2165   -3.3251    3.2667 C   0  0  0  0  0  0  0  0  0  0  0  0
 20 19  1  0
 18 20  1  0
 17 18  1  0
 14 17  1  0
 15 14  1  0
 16 15  1  0
 13 14  1  0
  1 13  1  0
  2  1  2  0
  3  1  1  0
  4  3  2  0
  5  4  1  0
  6  5  1  0
  7  6  2  0
  8  7  1  0
 11  8  1  0
 12 11  1  0
  9  8  2  0
 10  9  1  0
 10  5  2  0
M  END
> <structure>
s3_orig_f12

> <pose>
6

> <is_reference>
0

> <rmsd_to_reference_A>
8.252

> <vina_score>
-6.3

> <minimizedAffinity>
-6.33767

> <minimizedRMSD>
0.11961

> <CNNscore>
0.4857465327

> <CNNaffinity>
4.9444351196

> <CNN_VS>
2.4017422199

> <CNNaffinity_variance>
0.0112296678

$$$$
s3_orig_f12_pose7


 20 20  0  0  0  0  0  0  0  0999 V2000
   -4.2617   -1.0368    0.6694 C   0  0  0  0  0  0  0  0  0  0  0  0
   -3.6991    0.0051    0.8888 O   0  0  0  0  0  0  0  0  0  0  0  0
   -5.3848   -1.1937   -0.2838 C   0  0  0  0  0  0  0  0  0  0  0  0
   -6.4451   -0.3892   -0.2617 C   0  0  0  0  0  0  0  0  0  0  0  0
   -7.6427   -0.5566   -1.1227 C   0  0  0  0  0  0  0  0  0  0  0  0
   -7.8489   -1.7650   -1.7682 C   0  0  0  0  0  0  0  0  0  0  0  0
   -8.9163   -1.9230   -2.6454 C   0  0  0  0  0  0  0  0  0  0  0  0
   -9.8250   -0.9034   -2.8419 C   0  0  0  0  0  0  0  0  0  0  0  0
   -9.6463    0.2713   -2.1606 C   0  0  0  0  0  0  0  0  0  0  0  0
   -8.5596    0.4459   -1.3052 C   0  0  0  0  0  0  0  0  0  0  0  0
  -10.9081   -1.0223   -3.6891 O   0  0  0  0  0  0  0  0  0  0  0  0
  -11.1507   -2.2884   -4.2730 C   0  0  0  0  0  0  0  0  0  0  0  0
   -3.9051   -2.0409    1.3009 O   0  0  0  0  0  0  0  0  0  0  0  0
   -3.8395   -3.0505    2.1477 C   0  0  0  0  0  0  0  0  0  0  0  0
   -3.4920   -2.5467    3.5372 C   0  0  0  0  0  0  0  0  0  0  0  0
   -2.0369   -2.1216    3.6975 C   0  0  0  0  0  0  0  0  0  0  0  0
   -5.1402   -3.8362    2.1896 C   0  0  0  0  0  0  0  0  0  0  0  0
   -6.1024   -3.4039    3.2469 C   0  0  0  0  0  0  0  0  0  0  0  0
   -8.0760   -3.0058    1.7652 C   0  0  0  0  0  0  0  0  0  0  0  0
   -7.1018   -2.3926    2.7467 C   0  0  0  0  0  0  0  0  0  0  0  0
 20 19  1  0
 18 20  1  0
 17 18  1  0
 14 17  1  0
 15 14  1  0
 16 15  1  0
 13 14  1  0
  1 13  1  0
  2  1  2  0
  3  1  1  0
  4  3  2  0
  5  4  1  0
  6  5  1  0
  7  6  2  0
  8  7  1  0
 11  8  1  0
 12 11  1  0
  9  8  2  0
 10  9  1  0
 10  5  2  0
M  END
> <structure>
s3_orig_f12

> <pose>
7

> <is_reference>
0

> <rmsd_to_reference_A>
8.892

> <vina_score>
-6.3

> <minimizedAffinity>
-6.31501

> <minimizedRMSD>
0.19447

> <CNNscore>
0.1566724330

> <CNNaffinity>
4.3526172638

> <CNN_VS>
0.6819351315

> <CNNaffinity_variance>
0.1073223948

$$$$
s3_orig_f12_pose8


 20 20  0  0  0  0  0  0  0  0999 V2000
   -6.7356   -1.2999   -0.3732 C   0  0  0  0  0  0  0  0  0  0  0  0
   -6.8705   -1.3260   -1.5688 O   0  0  0  0  0  0  0  0  0  0  0  0
   -5.4245   -1.2806    0.3167 C   0  0  0  0  0  0  0  0  0  0  0  0
   -4.8563   -2.3898    0.7836 C   0  0  0  0  0  0  0  0  0  0  0  0
   -3.5954   -2.4201    1.5676 C   0  0  0  0  0  0  0  0  0  0  0  0
   -2.4855   -3.0579    1.0399 C   0  0  0  0  0  0  0  0  0  0  0  0
   -1.3173   -3.1731    1.7848 C   0  0  0  0  0  0  0  0  0  0  0  0
   -1.2200   -2.6024    3.0368 C   0  0  0  0  0  0  0  0  0  0  0  0
   -2.3028   -1.9264    3.5326 C   0  0  0  0  0  0  0  0  0  0  0  0
   -3.4876   -1.8363    2.8030 C   0  0  0  0  0  0  0  0  0  0  0  0
   -0.0750   -2.6767    3.8045 O   0  0  0  0  0  0  0  0  0  0  0  0
    1.1293   -3.0397    3.1546 C   0  0  0  0  0  0  0  0  0  0  0  0
   -7.7520   -1.3238    0.3345 O   0  0  0  0  0  0  0  0  0  0  0  0
   -8.6212   -1.5532    1.2994 C   0  0  0  0  0  0  0  0  0  0  0  0
  -10.0359   -1.4926    0.7563 C   0  0  0  0  0  0  0  0  0  0  0  0
  -10.9394   -2.6198    1.2450 C   0  0  0  0  0  0  0  0  0  0  0  0
   -8.3767   -2.8972    1.9685 C   0  0  0  0  0  0  0  0  0  0  0  0
   -7.3672   -2.8767    3.0680 C   0  0  0  0  0  0  0  0  0  0  0  0
   -8.5101   -4.5358    4.5469 C   0  0  0  0  0  0  0  0  0  0  0  0
   -7.2513   -4.2018    3.7768 C   0  0  0  0  0  0  0  0  0  0  0  0
 20 19  1  0
 18 20  1  0
 17 18  1  0
 14 17  1  0
 15 14  1  0
 16 15  1  0
 13 14  1  0
  1 13  1  0
  2  1  2  0
  3  1  1  0
  4  3  2  0
  5  4  1  0
  6  5  1  0
  7  6  2  0
  8  7  1  0
 11  8  1  0
 12 11  1  0
  9  8  2  0
 10  9  1  0
 10  5  2  0
M  END
> <structure>
s3_orig_f12

> <pose>
8

> <is_reference>
0

> <rmsd_to_reference_A>
3.487

> <vina_score>
-6.2

> <minimizedAffinity>
-7.01752

> <minimizedRMSD>
0.27659

> <CNNscore>
0.5169423819

> <CNNaffinity>
4.8214735985

> <CNN_VS>
2.4924240112

> <CNNaffinity_variance>
0.1690330505

$$$$
s3_orig_f12_pose9


 20 20  0  0  0  0  0  0  0  0999 V2000
   -7.0594   -3.1175    1.2729 C   0  0  0  0  0  0  0  0  0  0  0  0
   -7.8555   -3.3968    2.1323 O   0  0  0  0  0  0  0  0  0  0  0  0
   -5.5964   -3.3117    1.3984 C   0  0  0  0  0  0  0  0  0  0  0  0
   -4.8815   -2.6945    2.3359 C   0  0  0  0  0  0  0  0  0  0  0  0
   -3.4027   -2.7724    2.4486 C   0  0  0  0  0  0  0  0  0  0  0  0
   -2.7830   -2.2776    3.5833 C   0  0  0  0  0  0  0  0  0  0  0  0
   -1.3955   -2.2625    3.6812 C   0  0  0  0  0  0  0  0  0  0  0  0
   -0.6124   -2.7965    2.6794 C   0  0  0  0  0  0  0  0  0  0  0  0
   -1.2325   -3.3341    1.5818 C   0  0  0  0  0  0  0  0  0  0  0  0
   -2.6217   -3.3212    1.4648 C   0  0  0  0  0  0  0  0  0  0  0  0
    0.7656   -2.8193    2.7416 O   0  0  0  0  0  0  0  0  0  0  0  0
    1.3697   -2.6425    4.0086 C   0  0  0  0  0  0  0  0  0  0  0  0
   -7.4799   -2.6038    0.2274 O   0  0  0  0  0  0  0  0  0  0  0  0
   -7.7018   -1.7899   -0.7863 C   0  0  0  0  0  0  0  0  0  0  0  0
   -8.9559   -2.2080   -1.5305 C   0  0  0  0  0  0  0  0  0  0  0  0
   -9.0422   -3.7044   -1.8091 C   0  0  0  0  0  0  0  0  0  0  0  0
   -7.8249   -0.3444   -0.3308 C   0  0  0  0  0  0  0  0  0  0  0  0
   -8.9923   -0.0613    0.5565 C   0  0  0  0  0  0  0  0  0  0  0  0
   -8.6989    2.1404   -0.5879 C   0  0  0  0  0  0  0  0  0  0  0  0
   -9.5488    1.3259    0.3624 C   0  0  0  0  0  0  0  0  0  0  0  0
 20 19  1  0
 18 20  1  0
 17 18  1  0
 14 17  1  0
 15 14  1  0
 16 15  1  0
 13 14  1  0
  1 13  1  0
  2  1  2  0
  3  1  1  0
  4  3  2  0
  5  4  1  0
  6  5  1  0
  7  6  2  0
  8  7  1  0
 11  8  1  0
 12 11  1  0
  9  8  2  0
 10  9  1  0
 10  5  2  0
M  END
> <structure>
s3_orig_f12

> <pose>
9

> <is_reference>
0

> <rmsd_to_reference_A>
4.078

> <vina_score>
-6.1

> <minimizedAffinity>
-6.74731

> <minimizedRMSD>
0.38289

> <CNNscore>
0.7491787076

> <CNNaffinity>
5.2305054665

> <CNN_VS>
3.9185833931

> <CNNaffinity_variance>
0.0081927562

$$$$
