shuffle_control_pose0_reference


 20 20  0  0  0  0  0  0  0  0999 V2000
    3.1254   -1.1022   -0.8963 C   0  0  0  0  0  0  0  0  0  0  0  0
    2.2595   -1.2212   -1.7215 O   0  0  0  0  0  0  0  0  0  0  0  0
    3.3134    0.0978   -0.0466 C   0  0  0  0  0  0  0  0  0  0  0  0
    2.3082    0.9546    0.1584 C   0  0  0  0  0  0  0  0  0  0  0  0
    2.4252    2.1890    0.9700 C   0  0  0  0  0  0  0  0  0  0  0  0
    3.5034    3.0300    0.8794 C   0  0  0  0  0  0  0  0  0  0  0  0
    3.5721    4.1799    1.6592 C   0  0  0  0  0  0  0  0  0  0  0  0
    2.5626    4.4884    2.5332 C   0  0  0  0  0  0  0  0  0  0  0  0
    1.4810    3.6479    2.6297 C   0  0  0  0  0  0  0  0  0  0  0  0
    1.4117    2.4975    1.8526 C   0  0  0  0  0  0  0  0  0  0  0  0
    2.5677    5.6030    3.3194 O   0  0  0  0  0  0  0  0  0  0  0  0
    3.5713    5.7723    4.3024 C   0  0  0  0  0  0  0  0  0  0  0  0
    4.0193   -2.0707   -0.6706 O   0  0  0  0  0  0  0  0  0  0  0  0
    4.5567   -2.8118   -1.7468 C   0  0  0  0  0  0  0  0  0  0  0  0
    5.7367   -2.0676   -2.3520 C   0  0  0  0  0  0  0  0  0  0  0  0
    5.4906   -1.4848   -3.7014 C   0  0  0  0  0  0  0  0  0  0  0  0
    5.0329   -4.1464   -1.2207 C   0  0  0  0  0  0  0  0  0  0  0  0
    4.4007   -4.5487    0.0728 C   0  0  0  0  0  0  0  0  0  0  0  0
    4.9084   -5.6813    2.2365 C   0  0  0  0  0  0  0  0  0  0  0  0
    5.4200   -4.7648    1.1604 C   0  0  0  0  0  0  0  0  0  0  0  0
 20 19  1  0
 18 20  1  0
 17 18  1  0
 14 17  1  0
 15 14  1  0
 16 15  1  0
 13 14  1  0
  1 13  1  0
  2  1  2  0
  3  1  1  0
  4  3  2  0
  5  4  1  0
  6  5  1  0
  7  6  2  0
  8  7  1  0
 11  8  1  0
 12 11  1  0
  9  8  2  0
 10  9  1  0
 10  5  2  0
M  END
> <structure>
shuffle_control

> <pose>
0

> <is_reference>
1

> <rmsd_to_reference_A>
0.000

> <vina_score>


> <minimizedAffinity>
-4.26877

> <minimizedRMSD>
1.47644

> <CNNscore>
0.3296240270

> <CNNaffinity>
3.8855316639

> <CNN_VS>
1.2807645798

> <CNNaffinity_variance>
0.1860717535

$$$$
shuffle_control_pose1


 20 20  0  0  0  0  0  0  0  0999 V2000
   -0.4658    4.1334    2.0909 C   0  0  0  0  0  0  0  0  0  0  0  0
   -0.4587    4.2750    3.2842 O   0  0  0  0  0  0  0  0  0  0  0  0
    0.4227    3.2060    1.3513 C   0  0  0  0  0  0  0  0  0  0  0  0
    1.4996    2.6767    1.9413 C   0  0  0  0  0  0  0  0  0  0  0  0
    2.4504    1.7652    1.2615 C   0  0  0  0  0  0  0  0  0  0  0  0
    3.6570    2.1929    0.7718 C   0  0  0  0  0  0  0  0  0  0  0  0
    4.5213    1.3031    0.1415 C   0  0  0  0  0  0  0  0  0  0  0  0
    4.1780   -0.0155   -0.0019 C   0  0  0  0  0  0  0  0  0  0  0  0
    2.9694   -0.4492    0.4849 C   0  0  0  0  0  0  0  0  0  0  0  0
    2.1041    0.4386    1.1132 C   0  0  0  0  0  0  0  0  0  0  0  0
    4.9835   -0.9379   -0.6032 O   0  0  0  0  0  0  0  0  0  0  0  0
    4.4463   -1.8299   -1.5610 C   0  0  0  0  0  0  0  0  0  0  0  0
   -1.3010    4.8231    1.3065 O   0  0  0  0  0  0  0  0  0  0  0  0
   -0.9503    5.1119   -0.0309 C   0  0  0  0  0  0  0  0  0  0  0  0
   -2.0844    4.7148   -0.9634 C   0  0  0  0  0  0  0  0  0  0  0  0
   -2.5372    3.3005   -0.8387 C   0  0  0  0  0  0  0  0  0  0  0  0
   -0.7086    6.5994   -0.1549 C   0  0  0  0  0  0  0  0  0  0  0  0
    0.6917    7.0138    0.1622 C   0  0  0  0  0  0  0  0  0  0  0  0
    2.8837    5.8520    0.4213 C   0  0  0  0  0  0  0  0  0  0  0  0
    1.7119    6.1133   -0.4834 C   0  0  0  0  0  0  0  0  0  0  0  0
 20 19  1  0
 18 20  1  0
 17 18  1  0
 14 17  1  0
 15 14  1  0
 16 15  1  0
 13 14  1  0
  1 13  1  0
  2  1  2  0
  3  1  1  0
  4  3  2  0
  5  4  1  0
  6  5  1  0
  7  6  2  0
  8  7  1  0
 11  8  1  0
 12 11  1  0
  9  8  2  0
 10  9  1  0
 10  5  2  0
M  END
> <structure>
shuffle_control

> <pose>
1

> <is_reference>
0

> <rmsd_to_reference_A>
8.376

> <vina_score>
-5.1

> <minimizedAffinity>
-5.11922

> <minimizedRMSD>
0.10352

> <CNNscore>
0.2200888246

> <CNNaffinity>
3.9353504181

> <CNN_VS>
0.8661266565

> <CNNaffinity_variance>
0.2529717684

$$$$
shuffle_control_pose2


 20 20  0  0  0  0  0  0  0  0999 V2000
   -0.6150    4.0993    1.6973 C   0  0  0  0  0  0  0  0  0  0  0  0
   -0.5971    4.3719    2.8680 O   0  0  0  0  0  0  0  0  0  0  0  0
    0.3569    3.1992    1.0313 C   0  0  0  0  0  0  0  0  0  0  0  0
    1.2928    2.5613    1.7396 C   0  0  0  0  0  0  0  0  0  0  0  0
    2.3162    1.6692    1.1442 C   0  0  0  0  0  0  0  0  0  0  0  0
    2.1142    0.3234    0.9799 C   0  0  0  0  0  0  0  0  0  0  0  0
    3.1018   -0.4766    0.4155 C   0  0  0  0  0  0  0  0  0  0  0  0
    4.2944    0.0673    0.0165 C   0  0  0  0  0  0  0  0  0  0  0  0
    4.5034    1.4141    0.1807 C   0  0  0  0  0  0  0  0  0  0  0  0
    3.5188    2.2161    0.7471 C   0  0  0  0  0  0  0  0  0  0  0  0
    5.2983   -0.6627   -0.5490 O   0  0  0  0  0  0  0  0  0  0  0  0
    6.5493   -0.7706    0.1011 C   0  0  0  0  0  0  0  0  0  0  0  0
   -1.5398    4.6022    0.8727 O   0  0  0  0  0  0  0  0  0  0  0  0
   -1.5393    4.2570   -0.4972 C   0  0  0  0  0  0  0  0  0  0  0  0
   -2.6378    3.2442   -0.7792 C   0  0  0  0  0  0  0  0  0  0  0  0
   -3.6846    3.6986   -1.7380 C   0  0  0  0  0  0  0  0  0  0  0  0
   -1.8008    5.5061   -1.3068 C   0  0  0  0  0  0  0  0  0  0  0  0
   -0.5787    6.0805   -1.9472 C   0  0  0  0  0  0  0  0  0  0  0  0
   -1.4254    5.2927   -4.1574 C   0  0  0  0  0  0  0  0  0  0  0  0
   -0.8062    6.4301   -3.3943 C   0  0  0  0  0  0  0  0  0  0  0  0
 20 19  1  0
 18 20  1  0
 17 18  1  0
 14 17  1  0
 15 14  1  0
 16 15  1  0
 13 14  1  0
  1 13  1  0
  2  1  2  0
  3  1  1  0
  4  3  2  0
  5  4  1  0
  6  5  1  0
  7  6  2  0
  8  7  1  0
 11  8  1  0
 12 11  1  0
  9  8  2  0
 10  9  1  0
 10  5  2  0
M  END
> <structure>
shuffle_control

> <pose>
2

> <is_reference>
0

> <rmsd_to_reference_A>
8.750

> <vina_score>
-5.0

> <minimizedAffinity>
-5.48335

> <minimizedRMSD>
0.39856

> <CNNscore>
0.3209808469

> <CNNaffinity>
3.7453534603

> <CNN_VS>
1.2021867037

> <CNNaffinity_variance>
0.5881162286

$$$$
shuffle_control_pose3


 20 20  0  0  0  0  0  0  0  0999 V2000
   -0.1186    4.2877    2.3216 C   0  0  0  0  0  0  0  0  0  0  0  0
   -0.8203    4.4226    3.2889 O   0  0  0  0  0  0  0  0  0  0  0  0
    0.8297    3.1649    2.1257 C   0  0  0  0  0  0  0  0  0  0  0  0
    1.5884    3.0961    1.0272 C   0  0  0  0  0  0  0  0  0  0  0  0
    2.5387    1.9931    0.7461 C   0  0  0  0  0  0  0  0  0  0  0  0
    3.8427    2.2189    0.3912 C   0  0  0  0  0  0  0  0  0  0  0  0
    4.7010    1.1539    0.1367 C   0  0  0  0  0  0  0  0  0  0  0  0
    4.2543   -0.1379    0.2361 C   0  0  0  0  0  0  0  0  0  0  0  0
    2.9485   -0.3689    0.5891 C   0  0  0  0  0  0  0  0  0  0  0  0
    2.0884    0.6939    0.8417 C   0  0  0  0  0  0  0  0  0  0  0  0
    5.0476   -1.2237    0.0063 O   0  0  0  0  0  0  0  0  0  0  0  0
    6.4566   -1.0929    0.0424 C   0  0  0  0  0  0  0  0  0  0  0  0
   -0.1360    5.1648    1.3124 O   0  0  0  0  0  0  0  0  0  0  0  0
   -1.3012    5.3355    0.5336 C   0  0  0  0  0  0  0  0  0  0  0  0
   -1.6978    6.8026    0.5065 C   0  0  0  0  0  0  0  0  0  0  0  0
   -2.2399    7.3341    1.7892 C   0  0  0  0  0  0  0  0  0  0  0  0
   -1.0085    4.8781   -0.8770 C   0  0  0  0  0  0  0  0  0  0  0  0
   -1.3723    3.4523   -1.1396 C   0  0  0  0  0  0  0  0  0  0  0  0
   -3.7374    3.8014   -1.8519 C   0  0  0  0  0  0  0  0  0  0  0  0
   -2.8215    3.1709   -0.8401 C   0  0  0  0  0  0  0  0  0  0  0  0
 20 19  1  0
 18 20  1  0
 17 18  1  0
 14 17  1  0
 15 14  1  0
 16 15  1  0
 13 14  1  0
  1 13  1  0
  2  1  2  0
  3  1  1  0
  4  3  2  0
  5  4  1  0
  6  5  1  0
  7  6  2  0
  8  7  1  0
 11  8  1  0
 12 11  1  0
  9  8  2  0
 10  9  1  0
 10  5  2  0
M  END
> <structure>
shuffle_control

> <pose>
3

> <is_reference>
0

> <rmsd_to_reference_A>
8.758

> <vina_score>
-5.0

> <minimizedAffinity>
-5.34319

> <minimizedRMSD>
0.43697

> <CNNscore>
0.3303921223

> <CNNaffinity>
3.9719688892

> <CNN_VS>
1.3123072386

> <CNNaffinity_variance>
0.5145571232

$$$$
shuffle_control_pose4


 20 20  0  0  0  0  0  0  0  0999 V2000
   -0.2185    4.0704    2.3501 C   0  0  0  0  0  0  0  0  0  0  0  0
   -0.5840    4.4410    3.4333 O   0  0  0  0  0  0  0  0  0  0  0  0
    0.9577    3.1981    2.1163 C   0  0  0  0  0  0  0  0  0  0  0  0
    1.0873    2.5177    0.9735 C   0  0  0  0  0  0  0  0  0  0  0  0
    2.2161    1.6054    0.6775 C   0  0  0  0  0  0  0  0  0  0  0  0
    2.0759    0.2417    0.6584 C   0  0  0  0  0  0  0  0  0  0  0  0
    3.1628   -0.5777    0.3731 C   0  0  0  0  0  0  0  0  0  0  0  0
    4.3930   -0.0344    0.1098 C   0  0  0  0  0  0  0  0  0  0  0  0
    4.5402    1.3301    0.1297 C   0  0  0  0  0  0  0  0  0  0  0  0
    3.4554    2.1515    0.4159 C   0  0  0  0  0  0  0  0  0  0  0  0
    5.4948   -0.7832   -0.1827 O   0  0  0  0  0  0  0  0  0  0  0  0
    5.7292   -1.2109   -1.5110 C   0  0  0  0  0  0  0  0  0  0  0  0
   -0.8601    4.4259    1.2317 O   0  0  0  0  0  0  0  0  0  0  0  0
   -1.0420    5.7912    0.9160 C   0  0  0  0  0  0  0  0  0  0  0  0
    0.3087    6.4730    0.7605 C   0  0  0  0  0  0  0  0  0  0  0  0
    1.0847    6.0671   -0.4455 C   0  0  0  0  0  0  0  0  0  0  0  0
   -1.7962    5.8855   -0.3903 C   0  0  0  0  0  0  0  0  0  0  0  0
   -2.2837    4.5697   -0.9052 C   0  0  0  0  0  0  0  0  0  0  0  0
   -1.5209    5.4725   -3.1015 C   0  0  0  0  0  0  0  0  0  0  0  0
   -1.7122    4.2417   -2.2600 C   0  0  0  0  0  0  0  0  0  0  0  0
 20 19  1  0
 18 20  1  0
 17 18  1  0
 14 17  1  0
 15 14  1  0
 16 15  1  0
 13 14  1  0
  1 13  1  0
  2  1  2  0
  3  1  1  0
  4  3  2  0
  5  4  1  0
  6  5  1  0
  7  6  2  0
  8  7  1  0
 11  8  1  0
 12 11  1  0
  9  8  2  0
 10  9  1  0
 10  5  2  0
M  END
> <structure>
shuffle_control

> <pose>
4

> <is_reference>
0

> <rmsd_to_reference_A>
8.713

> <vina_score>
-4.9

> <minimizedAffinity>
-5.04364

> <minimizedRMSD>
0.22887

> <CNNscore>
0.1708953977

> <CNNaffinity>
3.6624476910

> <CNN_VS>
0.6258954406

> <CNNaffinity_variance>
0.5565024018

$$$$
shuffle_control_pose5


 20 20  0  0  0  0  0  0  0  0999 V2000
   -0.4557    3.9261    1.5252 C   0  0  0  0  0  0  0  0  0  0  0  0
   -0.4928    4.1703    2.7014 O   0  0  0  0  0  0  0  0  0  0  0  0
    0.5284    3.0185    0.8885 C   0  0  0  0  0  0  0  0  0  0  0  0
    1.4935    2.4422    1.6119 C   0  0  0  0  0  0  0  0  0  0  0  0
    2.5301    1.5474    1.0443 C   0  0  0  0  0  0  0  0  0  0  0  0
    3.7622    2.0023    0.6542 C   0  0  0  0  0  0  0  0  0  0  0  0
    4.7065    1.1265    0.1287 C   0  0  0  0  0  0  0  0  0  0  0  0
    4.4176   -0.2061   -0.0106 C   0  0  0  0  0  0  0  0  0  0  0  0
    3.1830   -0.6668    0.3755 C   0  0  0  0  0  0  0  0  0  0  0  0
    2.2385    0.2070    0.9000 C   0  0  0  0  0  0  0  0  0  0  0  0
    5.3015   -1.1150   -0.5129 O   0  0  0  0  0  0  0  0  0  0  0  0
    5.1205   -1.6348   -1.8173 C   0  0  0  0  0  0  0  0  0  0  0  0
   -1.3250    4.4700    0.6668 O   0  0  0  0  0  0  0  0  0  0  0  0
   -0.9281    4.7750   -0.6542 C   0  0  0  0  0  0  0  0  0  0  0  0
   -1.7338    3.9478   -1.6431 C   0  0  0  0  0  0  0  0  0  0  0  0
   -2.9958    3.3701   -1.1020 C   0  0  0  0  0  0  0  0  0  0  0  0
   -1.1913    6.2409   -0.9084 C   0  0  0  0  0  0  0  0  0  0  0  0
   -1.3388    6.5893   -2.3546 C   0  0  0  0  0  0  0  0  0  0  0  0
   -3.7662    7.0382   -1.9969 C   0  0  0  0  0  0  0  0  0  0  0  0
   -2.4821    7.5390   -2.5967 C   0  0  0  0  0  0  0  0  0  0  0  0
 20 19  1  0
 18 20  1  0
 17 18  1  0
 14 17  1  0
 15 14  1  0
 16 15  1  0
 13 14  1  0
  1 13  1  0
  2  1  2  0
  3  1  1  0
  4  3  2  0
  5  4  1  0
  6  5  1  0
  7  6  2  0
  8  7  1  0
 11  8  1  0
 12 11  1  0
  9  8  2  0
 10  9  1  0
 10  5  2  0
M  END
> <structure>
shuffle_control

> <pose>
5

> <is_reference>
0

> <rmsd_to_reference_A>
9.200

> <vina_score>
-4.8

> <minimizedAffinity>
-5.33801

> <minimizedRMSD>
0.52686

> <CNNscore>
0.2589605749

> <CNNaffinity>
3.5651481152

> <CNN_VS>
0.9232327938

> <CNNaffinity_variance>
0.7105184197

$$$$
shuffle_control_pose6


 20 20  0  0  0  0  0  0  0  0999 V2000
   -2.1689    3.3392   -0.6578 C   0  0  0  0  0  0  0  0  0  0  0  0
   -3.1888    2.7283   -0.4841 O   0  0  0  0  0  0  0  0  0  0  0  0
   -0.8231    2.7207   -0.7172 C   0  0  0  0  0  0  0  0  0  0  0  0
    0.0388    2.8590    0.2949 C   0  0  0  0  0  0  0  0  0  0  0  0
    1.4094    2.2967    0.2990 C   0  0  0  0  0  0  0  0  0  0  0  0
    2.5222    3.0691    0.5045 C   0  0  0  0  0  0  0  0  0  0  0  0
    3.7906    2.4995    0.5013 C   0  0  0  0  0  0  0  0  0  0  0  0
    3.9492    1.1555    0.2896 C   0  0  0  0  0  0  0  0  0  0  0  0
    2.8373    0.3760    0.0793 C   0  0  0  0  0  0  0  0  0  0  0  0
    1.5688    0.9445    0.0805 C   0  0  0  0  0  0  0  0  0  0  0  0
    5.1641    0.5363    0.2807 O   0  0  0  0  0  0  0  0  0  0  0  0
    5.2817   -0.7868   -0.2066 C   0  0  0  0  0  0  0  0  0  0  0  0
   -2.1616    4.6667   -0.8163 O   0  0  0  0  0  0  0  0  0  0  0  0
   -1.5782    5.2463   -1.9643 C   0  0  0  0  0  0  0  0  0  0  0  0
   -2.6602    5.6109   -2.9690 C   0  0  0  0  0  0  0  0  0  0  0  0
   -3.9675    6.0070   -2.3730 C   0  0  0  0  0  0  0  0  0  0  0  0
   -0.8470    6.5025   -1.5500 C   0  0  0  0  0  0  0  0  0  0  0  0
    0.5141    6.2532   -0.9849 C   0  0  0  0  0  0  0  0  0  0  0  0
   -0.0386    6.3372    1.4470 C   0  0  0  0  0  0  0  0  0  0  0  0
    0.7275    6.9731    0.3208 C   0  0  0  0  0  0  0  0  0  0  0  0
 20 19  1  0
 18 20  1  0
 17 18  1  0
 14 17  1  0
 15 14  1  0
 16 15  1  0
 13 14  1  0
  1 13  1  0
  2  1  2  0
  3  1  1  0
  4  3  2  0
  5  4  1  0
  6  5  1  0
  7  6  2  0
  8  7  1  0
 11  8  1  0
 12 11  1  0
  9  8  2  0
 10  9  1  0
 10  5  2  0
M  END
> <structure>
shuffle_control

> <pose>
6

> <is_reference>
0

> <rmsd_to_reference_A>
8.601

> <vina_score>
-4.7

> <minimizedAffinity>
-4.72747

> <minimizedRMSD>
0.10875

> <CNNscore>
0.1949511766

> <CNNaffinity>
3.5697870255

> <CNN_VS>
0.6959341764

> <CNNaffinity_variance>
0.5442454815

$$$$
shuffle_control_pose7


 20 20  0  0  0  0  0  0  0  0999 V2000
   -2.2736    3.1618   -0.4842 C   0  0  0  0  0  0  0  0  0  0  0  0
   -3.2842    2.5183   -0.3930 O   0  0  0  0  0  0  0  0  0  0  0  0
   -1.8637    3.9112   -1.6964 C   0  0  0  0  0  0  0  0  0  0  0  0
   -2.7666    4.5603   -2.4368 C   0  0  0  0  0  0  0  0  0  0  0  0
   -2.4403    5.3058   -3.6749 C   0  0  0  0  0  0  0  0  0  0  0  0
   -1.1862    5.3028   -4.2272 C   0  0  0  0  0  0  0  0  0  0  0  0
   -0.9234    6.0163   -5.3925 C   0  0  0  0  0  0  0  0  0  0  0  0
   -1.9157    6.7358   -6.0054 C   0  0  0  0  0  0  0  0  0  0  0  0
   -3.1738    6.7440   -5.4550 C   0  0  0  0  0  0  0  0  0  0  0  0
   -3.4375    6.0335   -4.2906 C   0  0  0  0  0  0  0  0  0  0  0  0
   -1.7234    7.4493   -7.1523 O   0  0  0  0  0  0  0  0  0  0  0  0
   -1.8607    6.8174   -8.4104 C   0  0  0  0  0  0  0  0  0  0  0  0
   -1.4069    3.2574    0.5303 O   0  0  0  0  0  0  0  0  0  0  0  0
   -0.0810    3.6847    0.2980 C   0  0  0  0  0  0  0  0  0  0  0  0
    0.3646    4.6231    1.4098 C   0  0  0  0  0  0  0  0  0  0  0  0
   -0.3993    4.4996    2.6833 C   0  0  0  0  0  0  0  0  0  0  0  0
    0.8200    2.4712    0.2882 C   0  0  0  0  0  0  0  0  0  0  0  0
    2.2542    2.7775    0.5762 C   0  0  0  0  0  0  0  0  0  0  0  0
    2.1926    0.3095    0.9319 C   0  0  0  0  0  0  0  0  0  0  0  0
    3.0097    1.5654    1.0550 C   0  0  0  0  0  0  0  0  0  0  0  0
 20 19  1  0
 18 20  1  0
 17 18  1  0
 14 17  1  0
 15 14  1  0
 16 15  1  0
 13 14  1  0
  1 13  1  0
  2  1  2  0
  3  1  1  0
  4  3  2  0
  5  4  1  0
  6  5  1  0
  7  6  2  0
  8  7  1  0
 11  8  1  0
 12 11  1  0
  9  8  2  0
 10  9  1  0
 10  5  2  0
M  END
> <structure>
shuffle_control

> <pose>
7

> <is_reference>
0

> <rmsd_to_reference_A>
8.580

> <vina_score>
-4.7

> <minimizedAffinity>
-5.09935

> <minimizedRMSD>
0.30394

> <CNNscore>
0.4854686856

> <CNNaffinity>
3.5821857452

> <CNN_VS>
1.7390390635

> <CNNaffinity_variance>
0.7540296912

$$$$
shuffle_control_pose8


 20 20  0  0  0  0  0  0  0  0999 V2000
    0.7142    3.9262    2.8940 C   0  0  0  0  0  0  0  0  0  0  0  0
    0.4822    4.0871    4.0620 O   0  0  0  0  0  0  0  0  0  0  0  0
   -0.0590    4.5483    1.7930 C   0  0  0  0  0  0  0  0  0  0  0  0
   -0.8896    3.8186    1.0428 C   0  0  0  0  0  0  0  0  0  0  0  0
   -1.6741    4.3610   -0.0922 C   0  0  0  0  0  0  0  0  0  0  0  0
   -1.6259    5.6807   -0.4551 C   0  0  0  0  0  0  0  0  0  0  0  0
   -2.3772    6.1483   -1.5282 C   0  0  0  0  0  0  0  0  0  0  0  0
   -3.1807    5.2942   -2.2386 C   0  0  0  0  0  0  0  0  0  0  0  0
   -3.2347    3.9704   -1.8770 C   0  0  0  0  0  0  0  0  0  0  0  0
   -2.4854    3.5027   -0.8038 C   0  0  0  0  0  0  0  0  0  0  0  0
   -3.9359    5.6883   -3.3039 O   0  0  0  0  0  0  0  0  0  0  0  0
   -3.3549    5.7729   -4.5916 C   0  0  0  0  0  0  0  0  0  0  0  0
    1.7171    3.1460    2.4782 O   0  0  0  0  0  0  0  0  0  0  0  0
    2.5170    3.5358    1.3801 C   0  0  0  0  0  0  0  0  0  0  0  0
    3.7047    4.3524    1.8657 C   0  0  0  0  0  0  0  0  0  0  0  0
    3.6362    5.8095    1.5607 C   0  0  0  0  0  0  0  0  0  0  0  0
    3.0241    2.2913    0.6886 C   0  0  0  0  0  0  0  0  0  0  0  0
    1.9512    1.3071    0.3484 C   0  0  0  0  0  0  0  0  0  0  0  0
    3.4282   -0.6986    0.2152 C   0  0  0  0  0  0  0  0  0  0  0  0
    2.2459   -0.0655    0.8936 C   0  0  0  0  0  0  0  0  0  0  0  0
 20 19  1  0
 18 20  1  0
 17 18  1  0
 14 17  1  0
 15 14  1  0
 16 15  1  0
 13 14  1  0
  1 13  1  0
  2  1  2  0
  3  1  1  0
  4  3  2  0
  5  4  1  0
  6  5  1  0
  7  6  2  0
  8  7  1  0
 11  8  1  0
 12 11  1  0
  9  8  2  0
 10  9  1  0
 10  5  2  0
M  END
> <structure>
shuffle_control

> <pose>
8

> <is_reference>
0

> <rmsd_to_reference_A>
6.980

> <vina_score>
-4.6

> <minimizedAffinity>
-5.02416

> <minimizedRMSD>
0.20878

> <CNNscore>
0.3672005832

> <CNNaffinity>
4.0850658417

> <CNN_VS>
1.5000385046

> <CNNaffinity_variance>
0.1657197624

$$$$
shuffle_control_pose9


 20 20  0  0  0  0  0  0  0  0999 V2000
    0.9878    3.1430    2.0312 C   0  0  0  0  0  0  0  0  0  0  0  0
    1.4705    3.6136    3.0260 O   0  0  0  0  0  0  0  0  0  0  0  0
    0.1186    3.8886    1.0884 C   0  0  0  0  0  0  0  0  0  0  0  0
   -0.6646    3.2402    0.2217 C   0  0  0  0  0  0  0  0  0  0  0  0
   -1.5374    3.9128   -0.7685 C   0  0  0  0  0  0  0  0  0  0  0  0
   -2.7868    3.4469   -1.0845 C   0  0  0  0  0  0  0  0  0  0  0  0
   -3.5747    4.1112   -2.0202 C   0  0  0  0  0  0  0  0  0  0  0  0
   -3.1113    5.2406   -2.6423 C   0  0  0  0  0  0  0  0  0  0  0  0
   -1.8591    5.7109   -2.3310 C   0  0  0  0  0  0  0  0  0  0  0  0
   -1.0704    5.0480   -1.3982 C   0  0  0  0  0  0  0  0  0  0  0  0
   -3.8374    5.9402   -3.5614 O   0  0  0  0  0  0  0  0  0  0  0  0
   -3.2939    6.2027   -4.8418 C   0  0  0  0  0  0  0  0  0  0  0  0
    1.1971    1.8702    1.6823 O   0  0  0  0  0  0  0  0  0  0  0  0
    2.5010    1.4184    1.3781 C   0  0  0  0  0  0  0  0  0  0  0  0
    2.4397    0.0247    0.7722 C   0  0  0  0  0  0  0  0  0  0  0  0
    1.6349   -0.0852   -0.4773 C   0  0  0  0  0  0  0  0  0  0  0  0
    3.1163    2.3661    0.3739 C   0  0  0  0  0  0  0  0  0  0  0  0
    4.6097    2.3218    0.3338 C   0  0  0  0  0  0  0  0  0  0  0  0
    4.5307    4.5056    1.5363 C   0  0  0  0  0  0  0  0  0  0  0  0
    5.2222    3.6900    0.4804 C   0  0  0  0  0  0  0  0  0  0  0  0
 20 19  1  0
 18 20  1  0
 17 18  1  0
 14 17  1  0
 15 14  1  0
 16 15  1  0
 13 14  1  0
  1 13  1  0
  2  1  2  0
  3  1  1  0
  4  3  2  0
  5  4  1  0
  6  5  1  0
  7  6  2  0
  8  7  1  0
 11  8  1  0
 12 11  1  0
  9  8  2  0
 10  9  1  0
 10  5  2  0
M  END
> <structure>
shuffle_control

> <pose>
9

> <is_reference>
0

> <rmsd_to_reference_A>
6.374

> <vina_score>
-4.6

> <minimizedAffinity>
-5.15441

> <minimizedRMSD>
0.46318

> <CNNscore>
0.4017178118

> <CNNaffinity>
4.0463242531

> <CNN_VS>
1.6254805326

> <CNNaffinity_variance>
0.4359928071

$$$$
