shuffle_control_esm0_pose0_reference


 20 20  0  0  0  0  0  0  0  0999 V2000
    2.7222   10.1136    5.7028 C   0  0  0  0  0  0  0  0  0  0  0  0
    3.1598   11.1283    6.1444 O   0  0  0  0  0  0  0  0  0  0  0  0
    3.4434    8.8049    5.7495 C   0  0  0  0  0  0  0  0  0  0  0  0
    3.7960    8.1846    4.6374 C   0  0  0  0  0  0  0  0  0  0  0  0
    4.4017    6.8195    4.6127 C   0  0  0  0  0  0  0  0  0  0  0  0
    3.9859    5.9380    3.6480 C   0  0  0  0  0  0  0  0  0  0  0  0
    4.4939    4.6476    3.5959 C   0  0  0  0  0  0  0  0  0  0  0  0
    5.4400    4.2310    4.5135 C   0  0  0  0  0  0  0  0  0  0  0  0
    5.8696    5.1300    5.4899 C   0  0  0  0  0  0  0  0  0  0  0  0
    5.3560    6.4300    5.5336 C   0  0  0  0  0  0  0  0  0  0  0  0
    5.9501    2.9817    4.5051 O   0  0  0  0  0  0  0  0  0  0  0  0
    5.1375    1.8946    4.0667 C   0  0  0  0  0  0  0  0  0  0  0  0
    1.5092   10.0623    5.0989 O   0  0  0  0  0  0  0  0  0  0  0  0
    0.7429   11.2292    4.8179 C   0  0  0  0  0  0  0  0  0  0  0  0
   -0.4487   11.3816    5.7458 C   0  0  0  0  0  0  0  0  0  0  0  0
   -0.2439   12.2432    6.9583 C   0  0  0  0  0  0  0  0  0  0  0  0
    0.2244   11.1130    3.4218 C   0  0  0  0  0  0  0  0  0  0  0  0
    0.7970    9.9839    2.6364 C   0  0  0  0  0  0  0  0  0  0  0  0
   -0.4082   10.9165    0.5906 C   0  0  0  0  0  0  0  0  0  0  0  0
    0.2530    9.7616    1.2578 C   0  0  0  0  0  0  0  0  0  0  0  0
 20 19  1  0
 18 20  1  0
 17 18  1  0
 14 17  1  0
 15 14  1  0
 16 15  1  0
 13 14  1  0
  1 13  1  0
  2  1  2  0
  3  1  1  0
  4  3  2  0
  5  4  1  0
  6  5  1  0
  7  6  2  0
  8  7  1  0
 11  8  1  0
 12 11  1  0
  9  8  2  0
 10  5  2  0
 10  9  1  0
M  END
> <structure>
shuffle_control_esm0

> <pose>
0

> <is_reference>
1

> <rmsd_to_reference_A>
0.000

> <vina_score>


> <minimizedAffinity>
-4.04617

> <minimizedRMSD>
0.71948

> <CNNscore>
0.6182990074

> <CNNaffinity>
4.6743149757

> <CNN_VS>
2.8901243210

> <CNNaffinity_variance>
0.1415421665

$$$$
shuffle_control_esm0_pose1


 20 20  0  0  0  0  0  0  0  0999 V2000
   -1.3532   13.3527    4.1683 C   0  0  0  0  0  0  0  0  0  0  0  0
   -2.0173   14.2914    4.4759 O   0  0  0  0  0  0  0  0  0  0  0  0
   -1.4842   12.6289    2.8663 C   0  0  0  0  0  0  0  0  0  0  0  0
   -0.5325   11.8179    2.4420 C   0  0  0  0  0  0  0  0  0  0  0  0
   -0.5440   11.1673    1.0981 C   0  0  0  0  0  0  0  0  0  0  0  0
    0.0892    9.9594    0.9522 C   0  0  0  0  0  0  0  0  0  0  0  0
    0.1353    9.3236   -0.2814 C   0  0  0  0  0  0  0  0  0  0  0  0
   -0.4699    9.8949   -1.3852 C   0  0  0  0  0  0  0  0  0  0  0  0
   -1.1219   11.1192   -1.2345 C   0  0  0  0  0  0  0  0  0  0  0  0
   -1.1660   11.7520    0.0111 C   0  0  0  0  0  0  0  0  0  0  0  0
   -0.4389    9.3155   -2.6034 O   0  0  0  0  0  0  0  0  0  0  0  0
   -1.4526    8.3793   -2.9624 C   0  0  0  0  0  0  0  0  0  0  0  0
   -0.4064   12.8461    4.9966 O   0  0  0  0  0  0  0  0  0  0  0  0
   -0.7199   11.9660    6.0712 C   0  0  0  0  0  0  0  0  0  0  0  0
   -0.2791   12.5101    7.4183 C   0  0  0  0  0  0  0  0  0  0  0  0
   -1.3715   12.8328    8.3966 C   0  0  0  0  0  0  0  0  0  0  0  0
    0.0034   10.6798    5.8383 C   0  0  0  0  0  0  0  0  0  0  0  0
    1.4485   10.8283    5.5099 C   0  0  0  0  0  0  0  0  0  0  0  0
    1.5495    8.5829    4.3033 C   0  0  0  0  0  0  0  0  0  0  0  0
    1.9839   10.0046    4.3783 C   0  0  0  0  0  0  0  0  0  0  0  0
 20 19  1  0
 18 20  1  0
 17 18  1  0
 14 17  1  0
 15 14  1  0
 16 15  1  0
 13 14  1  0
  1 13  1  0
  2  1  2  0
  3  1  1  0
  4  3  2  0
  5  4  1  0
  6  5  1  0
  7  6  2  0
  8  7  1  0
 11  8  1  0
 12 11  1  0
  9  8  2  0
 10  5  2  0
 10  9  1  0
M  END
> <structure>
shuffle_control_esm0

> <pose>
1

> <is_reference>
0

> <rmsd_to_reference_A>
7.015

> <vina_score>
-4.5

> <minimizedAffinity>
-4.51313

> <minimizedRMSD>
0.22280

> <CNNscore>
0.2664217353

> <CNNaffinity>
4.0599684715

> <CNN_VS>
1.0816638470

> <CNNaffinity_variance>
0.2960508764

$$$$
shuffle_control_esm0_pose2


 20 20  0  0  0  0  0  0  0  0999 V2000
    1.5805   11.6395    5.8266 C   0  0  0  0  0  0  0  0  0  0  0  0
    2.7011   11.6354    6.2259 O   0  0  0  0  0  0  0  0  0  0  0  0
    1.2109   11.7228    4.3799 C   0  0  0  0  0  0  0  0  0  0  0  0
    0.3430   10.8784    3.8525 C   0  0  0  0  0  0  0  0  0  0  0  0
    0.0286   10.8255    2.3925 C   0  0  0  0  0  0  0  0  0  0  0  0
   -0.7828   11.7971    1.8644 C   0  0  0  0  0  0  0  0  0  0  0  0
   -1.1306   11.7801    0.5202 C   0  0  0  0  0  0  0  0  0  0  0  0
   -0.6534   10.7857   -0.3133 C   0  0  0  0  0  0  0  0  0  0  0  0
    0.1792    9.8027    0.2230 C   0  0  0  0  0  0  0  0  0  0  0  0
    0.5282    9.8285    1.5765 C   0  0  0  0  0  0  0  0  0  0  0  0
   -0.9767   10.7275   -1.6212 O   0  0  0  0  0  0  0  0  0  0  0  0
   -1.9983   11.5824   -2.1319 C   0  0  0  0  0  0  0  0  0  0  0  0
    0.5212   11.5772    6.6707 O   0  0  0  0  0  0  0  0  0  0  0  0
   -0.2686   12.7167    6.9948 C   0  0  0  0  0  0  0  0  0  0  0  0
   -0.2838   13.0113    8.4837 C   0  0  0  0  0  0  0  0  0  0  0  0
   -1.6319   13.2374    9.1053 C   0  0  0  0  0  0  0  0  0  0  0  0
   -1.6732   12.4382    6.5689 C   0  0  0  0  0  0  0  0  0  0  0  0
   -2.1480   13.2527    5.4154 C   0  0  0  0  0  0  0  0  0  0  0  0
   -1.4885   14.9390    3.6177 C   0  0  0  0  0  0  0  0  0  0  0  0
   -1.2953   14.4114    4.9965 C   0  0  0  0  0  0  0  0  0  0  0  0
 20 19  1  0
 18 20  1  0
 17 18  1  0
 14 17  1  0
 15 14  1  0
 16 15  1  0
 13 14  1  0
  1 13  1  0
  2  1  2  0
  3  1  1  0
  4  3  2  0
  5  4  1  0
  6  5  1  0
  7  6  2  0
  8  7  1  0
 11  8  1  0
 12 11  1  0
  9  8  2  0
 10  5  2  0
 10  9  1  0
M  END
> <structure>
shuffle_control_esm0

> <pose>
2

> <is_reference>
0

> <rmsd_to_reference_A>
6.812

> <vina_score>
-4.4

> <minimizedAffinity>
-4.24525

> <minimizedRMSD>
0.19041

> <CNNscore>
0.2925952077

> <CNNaffinity>
4.1568546295

> <CNN_VS>
1.2162756920

> <CNNaffinity_variance>
0.4216330051

$$$$
shuffle_control_esm0_pose3


 20 20  0  0  0  0  0  0  0  0999 V2000
    1.8304    9.6505    3.3152 C   0  0  0  0  0  0  0  0  0  0  0  0
    2.7167    8.8906    3.5426 O   0  0  0  0  0  0  0  0  0  0  0  0
    0.9435   10.2352    4.3667 C   0  0  0  0  0  0  0  0  0  0  0  0
    1.2077   11.4168    4.8965 C   0  0  0  0  0  0  0  0  0  0  0  0
    0.4376   11.9982    6.0376 C   0  0  0  0  0  0  0  0  0  0  0  0
   -0.8900   11.6765    6.1602 C   0  0  0  0  0  0  0  0  0  0  0  0
   -1.6596   12.2106    7.1847 C   0  0  0  0  0  0  0  0  0  0  0  0
   -1.0952   13.0706    8.1080 C   0  0  0  0  0  0  0  0  0  0  0  0
    0.2573   13.3910    7.9880 C   0  0  0  0  0  0  0  0  0  0  0  0
    1.0270   12.8461    6.9561 C   0  0  0  0  0  0  0  0  0  0  0  0
   -1.8121   13.6210    9.1103 O   0  0  0  0  0  0  0  0  0  0  0  0
   -1.9125   15.0405    9.2046 C   0  0  0  0  0  0  0  0  0  0  0  0
    1.5390   10.0503    2.0523 O   0  0  0  0  0  0  0  0  0  0  0  0
    0.2048   10.1201    1.5594 C   0  0  0  0  0  0  0  0  0  0  0  0
   -0.0715    9.0937    0.4763 C   0  0  0  0  0  0  0  0  0  0  0  0
    0.1482    9.5425   -0.9398 C   0  0  0  0  0  0  0  0  0  0  0  0
    0.0052   11.4766    0.9665 C   0  0  0  0  0  0  0  0  0  0  0  0
   -1.2923   12.1230    1.3121 C   0  0  0  0  0  0  0  0  0  0  0  0
   -2.4724   13.6925    2.9409 C   0  0  0  0  0  0  0  0  0  0  0  0
   -1.4540   12.6313    2.7133 C   0  0  0  0  0  0  0  0  0  0  0  0
 20 19  1  0
 18 20  1  0
 17 18  1  0
 14 17  1  0
 15 14  1  0
 16 15  1  0
 13 14  1  0
  1 13  1  0
  2  1  2  0
  3  1  1  0
  4  3  2  0
  5  4  1  0
  6  5  1  0
  7  6  2  0
  8  7  1  0
 11  8  1  0
 12 11  1  0
  9  8  2  0
 10  5  2  0
 10  9  1  0
M  END
> <structure>
shuffle_control_esm0

> <pose>
3

> <is_reference>
0

> <rmsd_to_reference_A>
7.584

> <vina_score>
-4.3

> <minimizedAffinity>
-4.24072

> <minimizedRMSD>
0.10228

> <CNNscore>
0.2534897625

> <CNNaffinity>
4.1154952049

> <CNN_VS>
1.0432358980

> <CNNaffinity_variance>
0.5178054571

$$$$
shuffle_control_esm0_pose4


 20 20  0  0  0  0  0  0  0  0999 V2000
   -0.4794    9.2062   -2.3363 C   0  0  0  0  0  0  0  0  0  0  0  0
    0.4416    9.0421   -3.0716 O   0  0  0  0  0  0  0  0  0  0  0  0
   -0.3986    9.9826   -1.0611 C   0  0  0  0  0  0  0  0  0  0  0  0
    0.1511    9.4571    0.0195 C   0  0  0  0  0  0  0  0  0  0  0  0
    0.1486   10.1277    1.3539 C   0  0  0  0  0  0  0  0  0  0  0  0
   -0.6157   11.2534    1.5170 C   0  0  0  0  0  0  0  0  0  0  0  0
   -0.6341   11.9331    2.7271 C   0  0  0  0  0  0  0  0  0  0  0  0
    0.1150   11.4776    3.7961 C   0  0  0  0  0  0  0  0  0  0  0  0
    0.8866   10.3267    3.6328 C   0  0  0  0  0  0  0  0  0  0  0  0
    0.8962    9.6454    2.4125 C   0  0  0  0  0  0  0  0  0  0  0  0
    0.1348   12.1153    4.9855 O   0  0  0  0  0  0  0  0  0  0  0  0
   -0.5821   11.5662    6.0886 C   0  0  0  0  0  0  0  0  0  0  0  0
   -1.7033    8.6837   -2.5962 O   0  0  0  0  0  0  0  0  0  0  0  0
   -1.8792    7.3924   -3.1694 C   0  0  0  0  0  0  0  0  0  0  0  0
   -2.6910    7.4284   -4.4507 C   0  0  0  0  0  0  0  0  0  0  0  0
   -1.9195    7.3059   -5.7332 C   0  0  0  0  0  0  0  0  0  0  0  0
   -2.6185    6.5487   -2.1825 C   0  0  0  0  0  0  0  0  0  0  0  0
   -2.6170    5.0899   -2.4840 C   0  0  0  0  0  0  0  0  0  0  0  0
   -5.1631    5.2493   -2.4676 C   0  0  0  0  0  0  0  0  0  0  0  0
   -3.9435    4.4427   -2.7457 C   0  0  0  0  0  0  0  0  0  0  0  0
 20 19  1  0
 18 20  1  0
 17 18  1  0
 14 17  1  0
 15 14  1  0
 16 15  1  0
 13 14  1  0
  1 13  1  0
  2  1  2  0
  3  1  1  0
  4  3  2  0
  5  4  1  0
  6  5  1  0
  7  6  2  0
  8  7  1  0
 11  8  1  0
 12 11  1  0
  9  8  2  0
 10  5  2  0
 10  9  1  0
M  END
> <structure>
shuffle_control_esm0

> <pose>
4

> <is_reference>
0

> <rmsd_to_reference_A>
8.789

> <vina_score>
-4.3

> <minimizedAffinity>
-4.57049

> <minimizedRMSD>
0.18204

> <CNNscore>
0.3106906712

> <CNNaffinity>
3.9213111401

> <CNN_VS>
1.2183147669

> <CNNaffinity_variance>
0.7103502154

$$$$
shuffle_control_esm0_pose5


 20 20  0  0  0  0  0  0  0  0999 V2000
   -1.5008   13.6420    4.0836 C   0  0  0  0  0  0  0  0  0  0  0  0
   -1.2977   14.8129    4.1406 O   0  0  0  0  0  0  0  0  0  0  0  0
   -1.5813   12.8720    2.8048 C   0  0  0  0  0  0  0  0  0  0  0  0
   -0.6639   11.9719    2.4961 C   0  0  0  0  0  0  0  0  0  0  0  0
   -0.6158   11.2631    1.1811 C   0  0  0  0  0  0  0  0  0  0  0  0
    0.0522   10.0672    1.1089 C   0  0  0  0  0  0  0  0  0  0  0  0
    0.1530    9.3803   -0.0930 C   0  0  0  0  0  0  0  0  0  0  0  0
   -0.4297    9.8878   -1.2394 C   0  0  0  0  0  0  0  0  0  0  0  0
   -1.1160   11.0995   -1.1641 C   0  0  0  0  0  0  0  0  0  0  0  0
   -1.2166   11.7846    0.0518 C   0  0  0  0  0  0  0  0  0  0  0  0
   -0.3443    9.2567   -2.4297 O   0  0  0  0  0  0  0  0  0  0  0  0
   -1.4324    8.4479   -2.8745 C   0  0  0  0  0  0  0  0  0  0  0  0
   -1.6887   12.8937    5.1988 O   0  0  0  0  0  0  0  0  0  0  0  0
   -0.8088   12.9506    6.3173 C   0  0  0  0  0  0  0  0  0  0  0  0
    0.4573   12.1408    6.1042 C   0  0  0  0  0  0  0  0  0  0  0  0
    0.2725   10.7002    5.7240 C   0  0  0  0  0  0  0  0  0  0  0  0
   -1.5260   12.3773    7.4952 C   0  0  0  0  0  0  0  0  0  0  0  0
   -1.1811   13.0065    8.8015 C   0  0  0  0  0  0  0  0  0  0  0  0
   -2.2230   15.2427    9.4515 C   0  0  0  0  0  0  0  0  0  0  0  0
   -1.0868   14.5019    8.8385 C   0  0  0  0  0  0  0  0  0  0  0  0
 20 19  1  0
 18 20  1  0
 17 18  1  0
 14 17  1  0
 15 14  1  0
 16 15  1  0
 13 14  1  0
  1 13  1  0
  2  1  2  0
  3  1  1  0
  4  3  2  0
  5  4  1  0
  6  5  1  0
  7  6  2  0
  8  7  1  0
 11  8  1  0
 12 11  1  0
  9  8  2  0
 10  5  2  0
 10  9  1  0
M  END
> <structure>
shuffle_control_esm0

> <pose>
5

> <is_reference>
0

> <rmsd_to_reference_A>
7.750

> <vina_score>
-4.3

> <minimizedAffinity>
-4.53050

> <minimizedRMSD>
0.32940

> <CNNscore>
0.2667674124

> <CNNaffinity>
3.7810640335

> <CNN_VS>
1.0086647272

> <CNNaffinity_variance>
0.4473013878

$$$$
shuffle_control_esm0_pose6


 20 20  0  0  0  0  0  0  0  0999 V2000
    0.8540   10.4721    5.0536 C   0  0  0  0  0  0  0  0  0  0  0  0
    1.0421    9.3247    5.3090 O   0  0  0  0  0  0  0  0  0  0  0  0
    0.4681   11.4986    6.0698 C   0  0  0  0  0  0  0  0  0  0  0  0
   -0.7975   11.8233    6.2585 C   0  0  0  0  0  0  0  0  0  0  0  0
   -1.2385   12.9280    7.1621 C   0  0  0  0  0  0  0  0  0  0  0  0
   -1.5219   14.1502    6.6097 C   0  0  0  0  0  0  0  0  0  0  0  0
   -1.9072   15.2201    7.4052 C   0  0  0  0  0  0  0  0  0  0  0  0
   -2.0240   15.0673    8.7739 C   0  0  0  0  0  0  0  0  0  0  0  0
   -1.7441   13.8219    9.3365 C   0  0  0  0  0  0  0  0  0  0  0  0
   -1.3594   12.7469    8.5270 C   0  0  0  0  0  0  0  0  0  0  0  0
   -2.3842   16.0842    9.5842 O   0  0  0  0  0  0  0  0  0  0  0  0
   -1.3855   16.7643   10.3431 C   0  0  0  0  0  0  0  0  0  0  0  0
    0.9684   10.9505    3.7900 O   0  0  0  0  0  0  0  0  0  0  0  0
    0.0760   10.5772    2.7457 C   0  0  0  0  0  0  0  0  0  0  0  0
    0.7136    9.6274    1.7469 C   0  0  0  0  0  0  0  0  0  0  0  0
    0.1662    9.6652    0.3485 C   0  0  0  0  0  0  0  0  0  0  0  0
   -0.3172   11.8176    2.0120 C   0  0  0  0  0  0  0  0  0  0  0  0
   -1.4293   12.5853    2.6374 C   0  0  0  0  0  0  0  0  0  0  0  0
    0.2476   14.3664    3.3608 C   0  0  0  0  0  0  0  0  0  0  0  0
   -1.1544   14.0112    3.0088 C   0  0  0  0  0  0  0  0  0  0  0  0
 20 19  1  0
 18 20  1  0
 17 18  1  0
 14 17  1  0
 15 14  1  0
 16 15  1  0
 13 14  1  0
  1 13  1  0
  2  1  2  0
  3  1  1  0
  4  3  2  0
  5  4  1  0
  6  5  1  0
  7  6  2  0
  8  7  1  0
 11  8  1  0
 12 11  1  0
  9  8  2  0
 10  5  2  0
 10  9  1  0
M  END
> <structure>
shuffle_control_esm0

> <pose>
6

> <is_reference>
0

> <rmsd_to_reference_A>
8.822

> <vina_score>
-4.2

> <minimizedAffinity>
-4.15347

> <minimizedRMSD>
0.48838

> <CNNscore>
0.2269888967

> <CNNaffinity>
4.0339488983

> <CNN_VS>
0.9156616330

> <CNNaffinity_variance>
0.8991665244

$$$$
shuffle_control_esm0_pose7


 20 20  0  0  0  0  0  0  0  0999 V2000
    0.8907   10.7636    5.1872 C   0  0  0  0  0  0  0  0  0  0  0  0
    1.8613   10.0799    5.2707 O   0  0  0  0  0  0  0  0  0  0  0  0
    0.5143   11.8029    6.1945 C   0  0  0  0  0  0  0  0  0  0  0  0
   -0.7528   12.0317    6.4923 C   0  0  0  0  0  0  0  0  0  0  0  0
   -1.2001   13.1387    7.3903 C   0  0  0  0  0  0  0  0  0  0  0  0
   -1.4431   12.8512    8.7088 C   0  0  0  0  0  0  0  0  0  0  0  0
   -1.8886   13.8344    9.5809 C   0  0  0  0  0  0  0  0  0  0  0  0
   -2.0856   15.1279    9.1350 C   0  0  0  0  0  0  0  0  0  0  0  0
   -1.8302   15.4223    7.7955 C   0  0  0  0  0  0  0  0  0  0  0  0
   -1.3780   14.4270    6.9232 C   0  0  0  0  0  0  0  0  0  0  0  0
   -2.5288   16.1095    9.9480 O   0  0  0  0  0  0  0  0  0  0  0  0
   -1.6072   17.0755   10.4501 C   0  0  0  0  0  0  0  0  0  0  0  0
    0.0219   10.6477    4.1525 O   0  0  0  0  0  0  0  0  0  0  0  0
    0.3659   11.0082    2.8189 C   0  0  0  0  0  0  0  0  0  0  0  0
   -0.7225   11.8137    2.1333 C   0  0  0  0  0  0  0  0  0  0  0  0
   -1.4695   12.7930    2.9921 C   0  0  0  0  0  0  0  0  0  0  0  0
    0.5661    9.7499    2.0399 C   0  0  0  0  0  0  0  0  0  0  0  0
    0.8970    9.9536    0.6011 C   0  0  0  0  0  0  0  0  0  0  0  0
   -0.6889   10.1914   -1.3823 C   0  0  0  0  0  0  0  0  0  0  0  0
    0.0017    9.3024   -0.4078 C   0  0  0  0  0  0  0  0  0  0  0  0
 20 19  1  0
 18 20  1  0
 17 18  1  0
 14 17  1  0
 15 14  1  0
 16 15  1  0
 13 14  1  0
  1 13  1  0
  2  1  2  0
  3  1  1  0
  4  3  2  0
  5  4  1  0
  6  5  1  0
  7  6  2  0
  8  7  1  0
 11  8  1  0
 12 11  1  0
  9  8  2  0
 10  5  2  0
 10  9  1  0
M  END
> <structure>
shuffle_control_esm0

> <pose>
7

> <is_reference>
0

> <rmsd_to_reference_A>
8.578

> <vina_score>
-4.2

> <minimizedAffinity>
-4.34750

> <minimizedRMSD>
0.13542

> <CNNscore>
0.2467749417

> <CNNaffinity>
4.0972170830

> <CNN_VS>
1.0110905170

> <CNNaffinity_variance>
0.3152756393

$$$$
shuffle_control_esm0_pose8


 20 20  0  0  0  0  0  0  0  0999 V2000
    1.4347   11.8931    5.5196 C   0  0  0  0  0  0  0  0  0  0  0  0
    2.3012   11.2837    6.0626 O   0  0  0  0  0  0  0  0  0  0  0  0
    1.1559   11.8192    4.0537 C   0  0  0  0  0  0  0  0  0  0  0  0
    0.1210   11.1384    3.5933 C   0  0  0  0  0  0  0  0  0  0  0  0
   -0.1388   10.9192    2.1384 C   0  0  0  0  0  0  0  0  0  0  0  0
    0.3652    9.7896    1.5478 C   0  0  0  0  0  0  0  0  0  0  0  0
    0.1787    9.5497    0.1939 C   0  0  0  0  0  0  0  0  0  0  0  0
   -0.5313   10.4452   -0.5835 C   0  0  0  0  0  0  0  0  0  0  0  0
   -1.0513   11.5911    0.0182 C   0  0  0  0  0  0  0  0  0  0  0  0
   -0.8633   11.8237    1.3844 C   0  0  0  0  0  0  0  0  0  0  0  0
   -0.7247   10.2554   -1.9055 O   0  0  0  0  0  0  0  0  0  0  0  0
   -1.0340    8.9502   -2.3892 C   0  0  0  0  0  0  0  0  0  0  0  0
    0.6167   12.7311    6.2028 O   0  0  0  0  0  0  0  0  0  0  0  0
   -0.3031   12.2706    7.1882 C   0  0  0  0  0  0  0  0  0  0  0  0
   -1.7460   12.3459    6.7201 C   0  0  0  0  0  0  0  0  0  0  0  0
   -2.0280   13.2780    5.5770 C   0  0  0  0  0  0  0  0  0  0  0  0
   -0.1660   13.1457    8.3900 C   0  0  0  0  0  0  0  0  0  0  0  0
   -1.4563   13.5975    8.9827 C   0  0  0  0  0  0  0  0  0  0  0  0
   -2.8767   15.5189    9.8761 C   0  0  0  0  0  0  0  0  0  0  0  0
   -1.6519   15.0738    9.1581 C   0  0  0  0  0  0  0  0  0  0  0  0
 20 19  1  0
 18 20  1  0
 17 18  1  0
 14 17  1  0
 15 14  1  0
 16 15  1  0
 13 14  1  0
  1 13  1  0
  2  1  2  0
  3  1  1  0
  4  3  2  0
  5  4  1  0
  6  5  1  0
  7  6  2  0
  8  7  1  0
 11  8  1  0
 12 11  1  0
  9  8  2  0
 10  5  2  0
 10  9  1  0
M  END
> <structure>
shuffle_control_esm0

> <pose>
8

> <is_reference>
0

> <rmsd_to_reference_A>
7.335

> <vina_score>
-4.2

> <minimizedAffinity>
-4.59366

> <minimizedRMSD>
0.80184

> <CNNscore>
0.3104514778

> <CNNaffinity>
4.0918421745

> <CNN_VS>
1.2703185081

> <CNNaffinity_variance>
0.2952171564

$$$$
shuffle_control_esm0_pose9


 20 20  0  0  0  0  0  0  0  0999 V2000
    4.2803    8.3000    4.5237 C   0  0  0  0  0  0  0  0  0  0  0  0
    5.2009    8.6786    5.1758 O   0  0  0  0  0  0  0  0  0  0  0  0
    4.1227    6.8936    4.0415 C   0  0  0  0  0  0  0  0  0  0  0  0
    4.9177    6.4046    3.1065 C   0  0  0  0  0  0  0  0  0  0  0  0
    4.7330    5.0559    2.4912 C   0  0  0  0  0  0  0  0  0  0  0  0
    3.9877    4.1261    3.1694 C   0  0  0  0  0  0  0  0  0  0  0  0
    3.8081    2.8477    2.6580 C   0  0  0  0  0  0  0  0  0  0  0  0
    4.3700    2.4941    1.4463 C   0  0  0  0  0  0  0  0  0  0  0  0
    5.1217    3.4427    0.7521 C   0  0  0  0  0  0  0  0  0  0  0  0
    5.2953    4.7292    1.2714 C   0  0  0  0  0  0  0  0  0  0  0  0
    4.2300    1.2592    0.9203 O   0  0  0  0  0  0  0  0  0  0  0  0
    5.1383    0.2271    1.2994 C   0  0  0  0  0  0  0  0  0  0  0  0
    3.2789    9.1348    4.1500 O   0  0  0  0  0  0  0  0  0  0  0  0
    1.9296    8.6985    4.0105 C   0  0  0  0  0  0  0  0  0  0  0  0
    1.2244    9.3538    2.8363 C   0  0  0  0  0  0  0  0  0  0  0  0
    2.1023   10.0373    1.8288 C   0  0  0  0  0  0  0  0  0  0  0  0
    1.1942    9.0749    5.2551 C   0  0  0  0  0  0  0  0  0  0  0  0
    1.1059   10.5407    5.5082 C   0  0  0  0  0  0  0  0  0  0  0  0
   -0.4004   12.1521    6.7885 C   0  0  0  0  0  0  0  0  0  0  0  0
   -0.2587   11.1185    5.7268 C   0  0  0  0  0  0  0  0  0  0  0  0
 20 19  1  0
 18 20  1  0
 17 18  1  0
 14 17  1  0
 15 14  1  0
 16 15  1  0
 13 14  1  0
  1 13  1  0
  2  1  2  0
  3  1  1  0
  4  3  2  0
  5  4  1  0
  6  5  1  0
  7  6  2  0
  8  7  1  0
 11  8  1  0
 12 11  1  0
  9  8  2  0
 10  5  2  0
 10  9  1  0
M  END
> <structure>
shuffle_control_esm0

> <pose>
9

> <is_reference>
0

> <rmsd_to_reference_A>
3.897

> <vina_score>
-4.1

> <minimizedAffinity>
-4.32437

> <minimizedRMSD>
0.09502

> <CNNscore>
0.4657433927

> <CNNaffinity>
4.4374589920

> <CNN_VS>
2.0667171478

> <CNNaffinity_variance>
0.3156038821

$$$$
