bg33_4_ligand
 OpenBabel10092621173D

 20 20  0  0  1  0  0  0  0  0999 V2000
   -9.3320   -4.1990   -1.1460 C   0  0  0  0  0  0  0  0  0  0  0  0
  -10.5370   -4.4000   -0.8030 O   0  0  0  0  0  0  0  0  0  0  0  0
   -8.2800   -3.7910   -0.2010 C   0  0  0  0  0  3  0  0  0  0  0  0
   -7.4810   -4.8180    0.4020 C   0  0  0  0  0  3  0  0  0  0  0  0
   -6.4480   -4.4790    1.4660 C   0  0  0  0  0  0  0  0  0  0  0  0
   -6.7610   -3.7720    2.6070 C   0  0  0  0  0  3  0  0  0  0  0  0
   -5.7630   -3.4720    3.5960 C   0  0  0  0  0  3  0  0  0  0  0  0
   -4.4310   -3.9000    3.4630 C   0  0  0  0  0  0  0  0  0  0  0  0
   -4.1460   -4.6280    2.3100 C   0  0  0  0  0  3  0  0  0  0  0  0
   -5.1230   -4.9240    1.3510 C   0  0  0  0  0  3  0  0  0  0  0  0
   -3.4450   -3.6910    4.4060 O   0  0  0  0  0  0  0  0  0  0  0  0
   -3.2550   -4.6850    5.4450 C   0  0  0  0  0  1  0  0  0  0  0  0
   -8.8890   -4.5130   -2.5070 O   0  0  0  0  0  0  0  0  0  0  0  0
   -7.9370   -3.7070   -3.1160 C   0  0  2  0  0  3  0  0  0  0  0  0
   -8.7540   -3.1190   -4.3020 C   0  0  0  0  0  2  0  0  0  0  0  0
   -8.8300   -4.1170   -5.5030 C   0  0  0  0  0  1  0  0  0  0  0  0
   -6.6880   -4.6100   -3.5430 C   0  0  0  0  0  2  0  0  0  0  0  0
   -5.4790   -4.2560   -2.7150 C   0  0  0  0  0  2  0  0  0  0  0  0
   -4.2570   -2.3260   -1.6150 C   0  0  0  0  0  1  0  0  0  0  0  0
   -5.5710   -2.8510   -2.1260 C   0  0  0  0  0  2  0  0  0  0  0  0
  1  2  2  0  0  0  0
  1  3  1  0  0  0  0
  3  4  2  0  0  0  0
  4  5  1  0  0  0  0
  5  6  1  0  0  0  0
  6  7  2  0  0  0  0
  8  7  1  0  0  0  0
  8 11  1  0  0  0  0
  9  8  2  0  0  0  0
 10  5  2  0  0  0  0
 10  9  1  0  0  0  0
 11 12  1  0  0  0  0
 13  1  1  0  0  0  0
 14 15  1  6  0  0  0
 14 13  1  0  0  0  0
 16 15  1  0  0  0  0
 17 14  1  0  0  0  0
 17 18  1  0  0  0  0
 18 20  1  0  0  0  0
 20 19  1  0  0  0  0
M  END
>  <MODEL>
1

>  <REMARK>
 VINA RESULT:      -4.1      0.000      0.000
  Name = bg33_4_ligand
  12 active torsions:
  status: ('A' for Active; 'I' for Inactive)
    1  A    between atoms: C_1  and  C_2
    2  A    between atoms: C_2  and  C_3
    3  A    between atoms: C_3  and  C_4
    4  A    between atoms: C_4  and  C_5
    5  A    between atoms: C_5  and  C_6
    6  A    between atoms: C_5  and  O_8
    7  A    between atoms: C_6  and  C_7
    8  A    between atoms: O_8  and  C_9
    9  A    between atoms: C_9  and  C_11
   10  A    between atoms: C_12  and  C_13
   11  A    between atoms: C_16  and  O_17
   12  A    between atoms: O_17  and  C_18
                            x       y       z     vdW  Elec       q    Type
                         _______ _______ _______ _____ _____    ______ ____

>  <TORSDO>
F 9

$$$$
bg33_4_ligand
 OpenBabel10092621173D

 20 20  0  0  1  0  0  0  0  0999 V2000
   -5.6530   -2.8700   -1.1310 C   0  0  0  0  0  0  0  0  0  0  0  0
   -4.5890   -2.1840   -1.1960 O   0  0  0  0  0  0  0  0  0  0  0  0
   -6.7060   -2.8290   -2.1580 C   0  0  0  0  0  3  0  0  0  0  0  0
   -6.8490   -3.9630   -3.0240 C   0  0  0  0  0  3  0  0  0  0  0  0
   -7.8430   -3.9470   -4.1740 C   0  0  0  0  0  0  0  0  0  0  0  0
   -7.8120   -4.8700   -5.1970 C   0  0  0  0  0  3  0  0  0  0  0  0
   -8.7690   -4.8310   -6.2680 C   0  0  0  0  0  3  0  0  0  0  0  0
   -9.7930   -3.8690   -6.3160 C   0  0  0  0  0  0  0  0  0  0  0  0
   -9.8120   -2.9590   -5.2610 C   0  0  0  0  0  3  0  0  0  0  0  0
   -8.8810   -3.0050   -4.2160 C   0  0  0  0  0  3  0  0  0  0  0  0
  -10.7730   -3.8180   -7.2870 O   0  0  0  0  0  0  0  0  0  0  0  0
  -11.4350   -2.5530   -7.5400 C   0  0  0  0  0  1  0  0  0  0  0  0
   -5.8220   -3.8730   -0.0750 O   0  0  0  0  0  0  0  0  0  0  0  0
   -6.8540   -3.7300    0.8420 C   0  0  2  0  0  3  0  0  0  0  0  0
   -6.0760   -3.2290    2.0940 C   0  0  0  0  0  2  0  0  0  0  0  0
   -6.7940   -3.6380    3.4210 C   0  0  0  0  0  1  0  0  0  0  0  0
   -7.5870   -5.1390    1.0260 C   0  0  0  0  0  2  0  0  0  0  0  0
   -8.5330   -5.3900   -0.1200 C   0  0  0  0  0  2  0  0  0  0  0  0
  -10.5920   -4.5290   -1.3230 C   0  0  0  0  0  1  0  0  0  0  0  0
   -9.4820   -4.2190   -0.3550 C   0  0  0  0  0  2  0  0  0  0  0  0
  1 13  1  0  0  0  0
  2  1  2  0  0  0  0
  3  1  1  0  0  0  0
  4  3  2  0  0  0  0
  5  4  1  0  0  0  0
  6  5  2  0  0  0  0
  7  6  1  0  0  0  0
  8  7  2  0  0  0  0
  8  9  1  0  0  0  0
  9 10  2  0  0  0  0
 10  5  1  0  0  0  0
 11  8  1  0  0  0  0
 12 11  1  0  0  0  0
 13 14  1  0  0  0  0
 14 17  1  1  0  0  0
 14 15  1  0  0  0  0
 15 16  1  0  0  0  0
 18 17  1  0  0  0  0
 19 20  1  0  0  0  0
 20 18  1  0  0  0  0
M  END
>  <MODEL>
2

>  <REMARK>
 VINA RESULT:      -4.1      2.363      7.895
  Name = bg33_4_ligand
  12 active torsions:
  status: ('A' for Active; 'I' for Inactive)
    1  A    between atoms: C_1  and  C_2
    2  A    between atoms: C_2  and  C_3
    3  A    between atoms: C_3  and  C_4
    4  A    between atoms: C_4  and  C_5
    5  A    between atoms: C_5  and  C_6
    6  A    between atoms: C_5  and  O_8
    7  A    between atoms: C_6  and  C_7
    8  A    between atoms: O_8  and  C_9
    9  A    between atoms: C_9  and  C_11
   10  A    between atoms: C_12  and  C_13
   11  A    between atoms: C_16  and  O_17
   12  A    between atoms: O_17  and  C_18
                            x       y       z     vdW  Elec       q    Type
                         _______ _______ _______ _____ _____    ______ ____

>  <TORSDO>
F 9

$$$$
bg33_4_ligand
 OpenBabel10092621173D

 20 20  0  0  1  0  0  0  0  0999 V2000
   -5.0510   -2.7520   -1.4450 C   0  0  0  0  0  0  0  0  0  0  0  0
   -6.1270   -2.2610   -1.9030 O   0  0  0  0  0  0  0  0  0  0  0  0
   -3.8010   -2.8230   -2.2170 C   0  0  0  0  0  3  0  0  0  0  0  0
   -3.4510   -4.0760   -2.8210 C   0  0  0  0  0  3  0  0  0  0  0  0
   -2.1250   -4.2510   -3.5430 C   0  0  0  0  0  0  0  0  0  0  0  0
   -0.9650   -4.6120   -2.8900 C   0  0  0  0  0  3  0  0  0  0  0  0
    0.2730   -4.7740   -3.6010 C   0  0  0  0  0  3  0  0  0  0  0  0
    0.3600   -4.5970   -4.9930 C   0  0  0  0  0  0  0  0  0  0  0  0
   -0.8290   -4.2510   -5.6300 C   0  0  0  0  0  3  0  0  0  0  0  0
   -2.0350   -4.0990   -4.9340 C   0  0  0  0  0  3  0  0  0  0  0  0
    1.5060   -4.7950   -5.7360 O   0  0  0  0  0  0  0  0  0  0  0  0
    1.3780   -5.0410   -7.1590 C   0  0  0  0  0  1  0  0  0  0  0  0
   -4.9620   -3.1510   -0.0370 O   0  0  0  0  0  0  0  0  0  0  0  0
   -5.6230   -4.2940    0.3910 C   0  0  2  0  0  3  0  0  0  0  0  0
   -6.7320   -3.6800    1.2930 C   0  0  0  0  0  2  0  0  0  0  0  0
   -6.1500   -3.1480    2.6430 C   0  0  0  0  0  1  0  0  0  0  0  0
   -4.5850   -5.2410    1.1530 C   0  0  0  0  0  2  0  0  0  0  0  0
   -4.0050   -6.2550    0.2010 C   0  0  0  0  0  2  0  0  0  0  0  0
   -1.9230   -4.8940    0.6960 C   0  0  0  0  0  1  0  0  0  0  0  0
   -2.4840   -6.1630    0.1120 C   0  0  0  0  0  2  0  0  0  0  0  0
  1 13  1  0  0  0  0
  2  1  2  0  0  0  0
  3  1  1  0  0  0  0
  4  3  2  0  0  0  0
  5  6  1  0  0  0  0
  5  4  1  0  0  0  0
  7  6  2  0  0  0  0
  8  7  1  0  0  0  0
  9  8  2  0  0  0  0
  9 10  1  0  0  0  0
 10  5  2  0  0  0  0
 11  8  1  0  0  0  0
 12 11  1  0  0  0  0
 13 14  1  0  0  0  0
 14 17  1  1  0  0  0
 14 15  1  0  0  0  0
 15 16  1  0  0  0  0
 18 17  1  0  0  0  0
 20 18  1  0  0  0  0
 20 19  1  0  0  0  0
M  END
>  <MODEL>
3

>  <REMARK>
 VINA RESULT:      -4.0      4.458      7.281
  Name = bg33_4_ligand
  12 active torsions:
  status: ('A' for Active; 'I' for Inactive)
    1  A    between atoms: C_1  and  C_2
    2  A    between atoms: C_2  and  C_3
    3  A    between atoms: C_3  and  C_4
    4  A    between atoms: C_4  and  C_5
    5  A    between atoms: C_5  and  C_6
    6  A    between atoms: C_5  and  O_8
    7  A    between atoms: C_6  and  C_7
    8  A    between atoms: O_8  and  C_9
    9  A    between atoms: C_9  and  C_11
   10  A    between atoms: C_12  and  C_13
   11  A    between atoms: C_16  and  O_17
   12  A    between atoms: O_17  and  C_18
                            x       y       z     vdW  Elec       q    Type
                         _______ _______ _______ _____ _____    ______ ____

>  <TORSDO>
F 9

$$$$
bg33_4_ligand
 OpenBabel10092621173D

 20 20  0  0  1  0  0  0  0  0999 V2000
   -6.7950   -4.7360   -2.8720 C   0  0  0  0  0  0  0  0  0  0  0  0
   -6.9540   -5.9940   -2.8570 O   0  0  0  0  0  0  0  0  0  0  0  0
   -7.5830   -3.8320   -3.7260 C   0  0  0  0  0  3  0  0  0  0  0  0
   -9.0000   -3.7710   -3.5160 C   0  0  0  0  0  3  0  0  0  0  0  0
   -9.8890   -2.9410   -4.4280 C   0  0  0  0  0  0  0  0  0  0  0  0
  -11.2300   -2.7400   -4.1780 C   0  0  0  0  0  3  0  0  0  0  0  0
  -12.0430   -1.9470   -5.0570 C   0  0  0  0  0  3  0  0  0  0  0  0
  -11.5120   -1.3200   -6.1990 C   0  0  0  0  0  0  0  0  0  0  0  0
  -10.1520   -1.5250   -6.4180 C   0  0  0  0  0  3  0  0  0  0  0  0
   -9.3610   -2.2940   -5.5550 C   0  0  0  0  0  3  0  0  0  0  0  0
  -12.2300   -0.5010   -7.0460 O   0  0  0  0  0  0  0  0  0  0  0  0
  -11.8590   -0.4540   -8.4470 C   0  0  0  0  0  1  0  0  0  0  0  0
   -5.8970   -4.0920   -1.9090 O   0  0  0  0  0  0  0  0  0  0  0  0
   -5.9300   -2.7120   -1.7630 C   0  0  2  0  0  3  0  0  0  0  0  0
   -4.4170   -2.3910   -1.5960 C   0  0  0  0  0  2  0  0  0  0  0  0
   -3.5600   -3.0390   -2.7320 C   0  0  0  0  0  1  0  0  0  0  0  0
   -6.8390   -2.3440   -0.5000 C   0  0  0  0  0  2  0  0  0  0  0  0
   -6.8140   -3.4640    0.5070 C   0  0  0  0  0  2  0  0  0  0  0  0
   -6.6330   -3.4540    3.0360 C   0  0  0  0  0  1  0  0  0  0  0  0
   -5.9640   -3.1250    1.7290 C   0  0  0  0  0  2  0  0  0  0  0  0
  1  2  2  0  0  0  0
  1 13  1  0  0  0  0
  3  4  2  0  0  0  0
  3  1  1  0  0  0  0
  5  6  1  0  0  0  0
  5  4  1  0  0  0  0
  7  6  2  0  0  0  0
  8  7  1  0  0  0  0
  9  8  2  0  0  0  0
  9 10  1  0  0  0  0
 10  5  2  0  0  0  0
 11  8  1  0  0  0  0
 12 11  1  0  0  0  0
 13 14  1  0  0  0  0
 14 15  1  1  0  0  0
 14 17  1  0  0  0  0
 16 15  1  0  0  0  0
 17 18  1  0  0  0  0
 18 20  1  0  0  0  0
 20 19  1  0  0  0  0
M  END
>  <MODEL>
4

>  <REMARK>
 VINA RESULT:      -4.0      2.777      8.038
  Name = bg33_4_ligand
  12 active torsions:
  status: ('A' for Active; 'I' for Inactive)
    1  A    between atoms: C_1  and  C_2
    2  A    between atoms: C_2  and  C_3
    3  A    between atoms: C_3  and  C_4
    4  A    between atoms: C_4  and  C_5
    5  A    between atoms: C_5  and  C_6
    6  A    between atoms: C_5  and  O_8
    7  A    between atoms: C_6  and  C_7
    8  A    between atoms: O_8  and  C_9
    9  A    between atoms: C_9  and  C_11
   10  A    between atoms: C_12  and  C_13
   11  A    between atoms: C_16  and  O_17
   12  A    between atoms: O_17  and  C_18
                            x       y       z     vdW  Elec       q    Type
                         _______ _______ _______ _____ _____    ______ ____

>  <TORSDO>
F 9

$$$$
bg33_4_ligand
 OpenBabel10092621173D

 20 20  0  0  1  0  0  0  0  0999 V2000
   -8.3890   -5.0180    0.2040 C   0  0  0  0  0  0  0  0  0  0  0  0
   -8.5580   -6.2530    0.4420 O   0  0  0  0  0  0  0  0  0  0  0  0
   -9.1330   -4.2860   -0.8330 C   0  0  0  0  0  3  0  0  0  0  0  0
   -8.7860   -4.5220   -2.2050 C   0  0  0  0  0  3  0  0  0  0  0  0
   -9.4380   -3.7230   -3.3220 C   0  0  0  0  0  0  0  0  0  0  0  0
   -8.7070   -3.0570   -4.2830 C   0  0  0  0  0  3  0  0  0  0  0  0
   -9.3520   -2.3140   -5.3300 C   0  0  0  0  0  3  0  0  0  0  0  0
  -10.7530   -2.2480   -5.4410 C   0  0  0  0  0  0  0  0  0  0  0  0
  -11.4660   -2.9440   -4.4690 C   0  0  0  0  0  3  0  0  0  0  0  0
  -10.8330   -3.6720   -3.4530 C   0  0  0  0  0  3  0  0  0  0  0  0
  -11.4260   -1.5990   -6.4570 O   0  0  0  0  0  0  0  0  0  0  0  0
  -12.5430   -0.7400   -6.1120 C   0  0  0  0  0  1  0  0  0  0  0  0
   -7.5290   -4.2100    1.0720 O   0  0  0  0  0  0  0  0  0  0  0  0
   -6.2180   -3.9590    0.6900 C   0  0  2  0  0  3  0  0  0  0  0  0
   -5.4680   -4.1550    2.0400 C   0  0  0  0  0  2  0  0  0  0  0  0
   -6.1760   -3.3950    3.2090 C   0  0  0  0  0  1  0  0  0  0  0  0
   -6.1260   -2.4850    0.0780 C   0  0  0  0  0  2  0  0  0  0  0  0
   -5.9090   -2.5490   -1.4110 C   0  0  0  0  0  2  0  0  0  0  0  0
   -5.1730   -4.3990   -2.9810 C   0  0  0  0  0  1  0  0  0  0  0  0
   -4.8170   -3.5440   -1.7950 C   0  0  0  0  0  2  0  0  0  0  0  0
  1  2  2  0  0  0  0
  1 13  1  0  0  0  0
  3  1  1  0  0  0  0
  4  3  2  0  0  0  0
  5  4  1  0  0  0  0
  6  5  2  0  0  0  0
  7  6  1  0  0  0  0
  8  7  2  0  0  0  0
  8  9  1  0  0  0  0
  9 10  2  0  0  0  0
 10  5  1  0  0  0  0
 11 12  1  0  0  0  0
 11  8  1  0  0  0  0
 14 17  1  1  0  0  0
 14 13  1  0  0  0  0
 14 15  1  0  0  0  0
 15 16  1  0  0  0  0
 18 17  1  0  0  0  0
 19 20  1  0  0  0  0
 20 18  1  0  0  0  0
M  END
>  <MODEL>
5

>  <REMARK>
 VINA RESULT:      -4.0      2.349      7.423
  Name = bg33_4_ligand
  12 active torsions:
  status: ('A' for Active; 'I' for Inactive)
    1  A    between atoms: C_1  and  C_2
    2  A    between atoms: C_2  and  C_3
    3  A    between atoms: C_3  and  C_4
    4  A    between atoms: C_4  and  C_5
    5  A    between atoms: C_5  and  C_6
    6  A    between atoms: C_5  and  O_8
    7  A    between atoms: C_6  and  C_7
    8  A    between atoms: O_8  and  C_9
    9  A    between atoms: C_9  and  C_11
   10  A    between atoms: C_12  and  C_13
   11  A    between atoms: C_16  and  O_17
   12  A    between atoms: O_17  and  C_18
                            x       y       z     vdW  Elec       q    Type
                         _______ _______ _______ _____ _____    ______ ____

>  <TORSDO>
F 9

$$$$
bg33_4_ligand
 OpenBabel10092621173D

 20 20  0  0  1  0  0  0  0  0999 V2000
   -4.2490   -6.1960   -2.9800 C   0  0  0  0  0  0  0  0  0  0  0  0
   -4.3100   -7.4090   -2.6120 O   0  0  0  0  0  0  0  0  0  0  0  0
   -5.2250   -5.5780   -3.8910 C   0  0  0  0  0  3  0  0  0  0  0  0
   -6.4480   -5.0800   -3.3310 C   0  0  0  0  0  3  0  0  0  0  0  0
   -7.5470   -4.5260   -4.2250 C   0  0  0  0  0  0  0  0  0  0  0  0
   -8.2670   -3.3950   -3.9030 C   0  0  0  0  0  3  0  0  0  0  0  0
   -9.2960   -2.8930   -4.7710 C   0  0  0  0  0  3  0  0  0  0  0  0
   -9.6050   -3.5120   -5.9950 C   0  0  0  0  0  0  0  0  0  0  0  0
   -8.8500   -4.6420   -6.3040 C   0  0  0  0  0  3  0  0  0  0  0  0
   -7.8440   -5.1240   -5.4580 C   0  0  0  0  0  3  0  0  0  0  0  0
  -10.5410   -3.0430   -6.8940 O   0  0  0  0  0  0  0  0  0  0  0  0
  -10.6070   -1.6170   -7.1490 C   0  0  0  0  0  1  0  0  0  0  0  0
   -3.2610   -5.2920   -2.3850 O   0  0  0  0  0  0  0  0  0  0  0  0
   -2.9120   -4.1270   -3.0550 C   0  0  2  0  0  3  0  0  0  0  0  0
   -1.4820   -4.4850   -3.5550 C   0  0  0  0  0  2  0  0  0  0  0  0
   -1.3410   -4.2750   -5.0980 C   0  0  0  0  0  1  0  0  0  0  0  0
   -2.9790   -2.8990   -2.0340 C   0  0  0  0  0  2  0  0  0  0  0  0
   -4.3780   -2.3420   -1.9760 C   0  0  0  0  0  2  0  0  0  0  0  0
   -6.5920   -2.4200   -0.7440 C   0  0  0  0  0  1  0  0  0  0  0  0
   -5.1420   -2.8200   -0.7440 C   0  0  0  0  0  2  0  0  0  0  0  0
  1  2  2  0  0  0  0
  1 13  1  0  0  0  0
  3  4  2  0  0  0  0
  3  1  1  0  0  0  0
  5  6  1  0  0  0  0
  5  4  1  0  0  0  0
  7  6  2  0  0  0  0
  8  7  1  0  0  0  0
  9  8  2  0  0  0  0
  9 10  1  0  0  0  0
 10  5  2  0  0  0  0
 11  8  1  0  0  0  0
 12 11  1  0  0  0  0
 14 15  1  1  0  0  0
 14 13  1  0  0  0  0
 14 17  1  0  0  0  0
 16 15  1  0  0  0  0
 17 18  1  0  0  0  0
 18 20  1  0  0  0  0
 19 20  1  0  0  0  0
M  END
>  <MODEL>
6

>  <REMARK>
 VINA RESULT:      -4.0      3.670      7.602
  Name = bg33_4_ligand
  12 active torsions:
  status: ('A' for Active; 'I' for Inactive)
    1  A    between atoms: C_1  and  C_2
    2  A    between atoms: C_2  and  C_3
    3  A    between atoms: C_3  and  C_4
    4  A    between atoms: C_4  and  C_5
    5  A    between atoms: C_5  and  C_6
    6  A    between atoms: C_5  and  O_8
    7  A    between atoms: C_6  and  C_7
    8  A    between atoms: O_8  and  C_9
    9  A    between atoms: C_9  and  C_11
   10  A    between atoms: C_12  and  C_13
   11  A    between atoms: C_16  and  O_17
   12  A    between atoms: O_17  and  C_18
                            x       y       z     vdW  Elec       q    Type
                         _______ _______ _______ _____ _____    ______ ____

>  <TORSDO>
F 9

$$$$
bg33_4_ligand
 OpenBabel10092621173D

 20 20  0  0  1  0  0  0  0  0999 V2000
   -0.3140   -4.2510   -1.3440 C   0  0  0  0  0  0  0  0  0  0  0  0
    0.1440   -3.8840   -0.2190 O   0  0  0  0  0  0  0  0  0  0  0  0
   -1.7500   -4.4310   -1.6120 C   0  0  0  0  0  3  0  0  0  0  0  0
   -2.5240   -3.2710   -1.9450 C   0  0  0  0  0  3  0  0  0  0  0  0
   -4.0300   -3.3640   -2.1300 C   0  0  0  0  0  0  0  0  0  0  0  0
   -4.9100   -2.5000   -1.5140 C   0  0  0  0  0  3  0  0  0  0  0  0
   -6.3290   -2.6120   -1.7130 C   0  0  0  0  0  3  0  0  0  0  0  0
   -6.8880   -3.5870   -2.5580 C   0  0  0  0  0  0  0  0  0  0  0  0
   -5.9760   -4.4350   -3.1820 C   0  0  0  0  0  3  0  0  0  0  0  0
   -4.5930   -4.3190   -2.9900 C   0  0  0  0  0  3  0  0  0  0  0  0
   -8.2360   -3.7050   -2.8320 O   0  0  0  0  0  0  0  0  0  0  0  0
   -8.7310   -3.2160   -4.1040 C   0  0  0  0  0  1  0  0  0  0  0  0
    0.5770   -4.3760   -2.5000 O   0  0  0  0  0  0  0  0  0  0  0  0
    0.2000   -5.1780   -3.5680 C   0  0  2  0  0  3  0  0  0  0  0  0
    1.2760   -6.3000   -3.4980 C   0  0  0  0  0  2  0  0  0  0  0  0
    0.6290   -7.7230   -3.5370 C   0  0  0  0  0  1  0  0  0  0  0  0
    0.2250   -4.3060   -4.9080 C   0  0  0  0  0  2  0  0  0  0  0  0
   -1.1460   -4.2640   -5.5310 C   0  0  0  0  0  2  0  0  0  0  0  0
   -2.7200   -6.2510   -5.4570 C   0  0  0  0  0  1  0  0  0  0  0  0
   -1.5470   -5.6040   -6.1420 C   0  0  0  0  0  2  0  0  0  0  0  0
  1  2  2  0  0  0  0
  3  1  1  0  0  0  0
  4  3  2  0  0  0  0
  5  4  1  0  0  0  0
  5  6  1  0  0  0  0
  7  6  2  0  0  0  0
  8  7  1  0  0  0  0
  9 10  1  0  0  0  0
  9  8  2  0  0  0  0
 10  5  2  0  0  0  0
 11  8  1  0  0  0  0
 12 11  1  0  0  0  0
 13  1  1  0  0  0  0
 14 17  1  6  0  0  0
 14 15  1  0  0  0  0
 14 13  1  0  0  0  0
 16 15  1  0  0  0  0
 18 17  1  0  0  0  0
 20 18  1  0  0  0  0
 20 19  1  0  0  0  0
M  END
>  <MODEL>
7

>  <REMARK>
 VINA RESULT:      -4.0      4.364      7.628
  Name = bg33_4_ligand
  12 active torsions:
  status: ('A' for Active; 'I' for Inactive)
    1  A    between atoms: C_1  and  C_2
    2  A    between atoms: C_2  and  C_3
    3  A    between atoms: C_3  and  C_4
    4  A    between atoms: C_4  and  C_5
    5  A    between atoms: C_5  and  C_6
    6  A    between atoms: C_5  and  O_8
    7  A    between atoms: C_6  and  C_7
    8  A    between atoms: O_8  and  C_9
    9  A    between atoms: C_9  and  C_11
   10  A    between atoms: C_12  and  C_13
   11  A    between atoms: C_16  and  O_17
   12  A    between atoms: O_17  and  C_18
                            x       y       z     vdW  Elec       q    Type
                         _______ _______ _______ _____ _____    ______ ____

>  <TORSDO>
F 9

$$$$
bg33_4_ligand
 OpenBabel10092621173D

 20 20  0  0  1  0  0  0  0  0999 V2000
   -6.0700   -2.4080   -1.0470 C   0  0  0  0  0  0  0  0  0  0  0  0
   -5.9510   -2.0880    0.1750 O   0  0  0  0  0  0  0  0  0  0  0  0
   -4.9240   -2.7190   -1.9170 C   0  0  0  0  0  3  0  0  0  0  0  0
   -3.9920   -3.7150   -1.4740 C   0  0  0  0  0  3  0  0  0  0  0  0
   -2.7310   -4.0120   -2.2680 C   0  0  0  0  0  0  0  0  0  0  0  0
   -1.5280   -4.3160   -1.6670 C   0  0  0  0  0  3  0  0  0  0  0  0
   -0.3530   -4.5960   -2.4460 C   0  0  0  0  0  3  0  0  0  0  0  0
   -0.3760   -4.5970   -3.8520 C   0  0  0  0  0  0  0  0  0  0  0  0
   -1.6070   -4.3050   -4.4340 C   0  0  0  0  0  3  0  0  0  0  0  0
   -2.7510   -4.0380   -3.6700 C   0  0  0  0  0  3  0  0  0  0  0  0
    0.7040   -4.9140   -4.6510 O   0  0  0  0  0  0  0  0  0  0  0  0
    0.5950   -4.7070   -6.0820 C   0  0  0  0  0  1  0  0  0  0  0  0
   -7.3970   -2.6310   -1.6270 O   0  0  0  0  0  0  0  0  0  0  0  0
   -7.6110   -3.7390   -2.4350 C   0  0  2  0  0  3  0  0  0  0  0  0
   -8.3770   -3.0980   -3.6280 C   0  0  0  0  0  2  0  0  0  0  0  0
   -8.5070   -4.0900   -4.8300 C   0  0  0  0  0  1  0  0  0  0  0  0
   -8.4400   -4.8310   -1.6130 C   0  0  0  0  0  2  0  0  0  0  0  0
   -9.2080   -4.1730   -0.4960 C   0  0  0  0  0  2  0  0  0  0  0  0
  -11.1120   -4.9870   -1.9590 C   0  0  0  0  0  1  0  0  0  0  0  0
  -10.7180   -4.2650   -0.6990 C   0  0  0  0  0  2  0  0  0  0  0  0
  1  2  2  0  0  0  0
  3  4  2  0  0  0  0
  3  1  1  0  0  0  0
  5  6  1  0  0  0  0
  5  4  1  0  0  0  0
  7  6  2  0  0  0  0
  8  7  1  0  0  0  0
  9  8  2  0  0  0  0
  9 10  1  0  0  0  0
 10  5  2  0  0  0  0
 11  8  1  0  0  0  0
 12 11  1  0  0  0  0
 13  1  1  0  0  0  0
 14 15  1  6  0  0  0
 14 13  1  0  0  0  0
 14 17  1  0  0  0  0
 16 15  1  0  0  0  0
 17 18  1  0  0  0  0
 19 20  1  0  0  0  0
 20 18  1  0  0  0  0
M  END
>  <MODEL>
8

>  <REMARK>
 VINA RESULT:      -3.9      3.724      6.065
  Name = bg33_4_ligand
  12 active torsions:
  status: ('A' for Active; 'I' for Inactive)
    1  A    between atoms: C_1  and  C_2
    2  A    between atoms: C_2  and  C_3
    3  A    between atoms: C_3  and  C_4
    4  A    between atoms: C_4  and  C_5
    5  A    between atoms: C_5  and  C_6
    6  A    between atoms: C_5  and  O_8
    7  A    between atoms: C_6  and  C_7
    8  A    between atoms: O_8  and  C_9
    9  A    between atoms: C_9  and  C_11
   10  A    between atoms: C_12  and  C_13
   11  A    between atoms: C_16  and  O_17
   12  A    between atoms: O_17  and  C_18
                            x       y       z     vdW  Elec       q    Type
                         _______ _______ _______ _____ _____    ______ ____

>  <TORSDO>
F 9

$$$$
bg33_4_ligand
 OpenBabel10092621173D

 20 20  0  0  1  0  0  0  0  0999 V2000
   -6.7100   -4.6580   -3.6400 C   0  0  0  0  0  0  0  0  0  0  0  0
   -7.1300   -5.0700   -4.7640 O   0  0  0  0  0  0  0  0  0  0  0  0
   -5.3420   -4.8970   -3.1510 C   0  0  0  0  0  3  0  0  0  0  0  0
   -4.4990   -3.7590   -2.9250 C   0  0  0  0  0  3  0  0  0  0  0  0
   -3.0430   -3.9350   -2.5230 C   0  0  0  0  0  0  0  0  0  0  0  0
   -2.5850   -3.6650   -1.2510 C   0  0  0  0  0  3  0  0  0  0  0  0
   -1.2040   -3.8450   -0.9000 C   0  0  0  0  0  3  0  0  0  0  0  0
   -0.2580   -4.3250   -1.8240 C   0  0  0  0  0  0  0  0  0  0  0  0
   -0.7510   -4.6070   -3.0960 C   0  0  0  0  0  3  0  0  0  0  0  0
   -2.1000   -4.4350   -3.4320 C   0  0  0  0  0  3  0  0  0  0  0  0
    1.0670   -4.5720   -1.5280 O   0  0  0  0  0  0  0  0  0  0  0  0
    2.0750   -4.2230   -2.5110 C   0  0  0  0  0  1  0  0  0  0  0  0
   -7.5430   -3.7770   -2.8160 O   0  0  0  0  0  0  0  0  0  0  0  0
   -8.3140   -4.3230   -1.7990 C   0  0  2  0  0  3  0  0  0  0  0  0
   -9.7400   -4.2210   -2.4140 C   0  0  0  0  0  2  0  0  0  0  0  0
  -10.8490   -4.2940   -1.3140 C   0  0  0  0  0  1  0  0  0  0  0  0
   -8.0940   -3.4700   -0.4650 C   0  0  0  0  0  2  0  0  0  0  0  0
   -7.1220   -2.3470   -0.7150 C   0  0  0  0  0  2  0  0  0  0  0  0
   -5.7060   -3.7900    0.8150 C   0  0  0  0  0  1  0  0  0  0  0  0
   -5.8870   -2.4400    0.1770 C   0  0  0  0  0  2  0  0  0  0  0  0
  1  3  1  0  0  0  0
  1 13  1  0  0  0  0
  2  1  2  0  0  0  0
  3  4  2  0  0  0  0
  4  5  1  0  0  0  0
  5  6  1  0  0  0  0
  6  7  2  0  0  0  0
  8 11  1  0  0  0  0
  8  7  1  0  0  0  0
  9  8  2  0  0  0  0
 10  9  1  0  0  0  0
 10  5  2  0  0  0  0
 12 11  1  0  0  0  0
 13 14  1  0  0  0  0
 14 15  1  6  0  0  0
 14 17  1  0  0  0  0
 15 16  1  0  0  0  0
 18 17  1  0  0  0  0
 18 20  1  0  0  0  0
 20 19  1  0  0  0  0
M  END
>  <MODEL>
9

>  <REMARK>
 VINA RESULT:      -3.9      3.191      5.098
  Name = bg33_4_ligand
  12 active torsions:
  status: ('A' for Active; 'I' for Inactive)
    1  A    between atoms: C_1  and  C_2
    2  A    between atoms: C_2  and  C_3
    3  A    between atoms: C_3  and  C_4
    4  A    between atoms: C_4  and  C_5
    5  A    between atoms: C_5  and  C_6
    6  A    between atoms: C_5  and  O_8
    7  A    between atoms: C_6  and  C_7
    8  A    between atoms: O_8  and  C_9
    9  A    between atoms: C_9  and  C_11
   10  A    between atoms: C_12  and  C_13
   11  A    between atoms: C_16  and  O_17
   12  A    between atoms: O_17  and  C_18
                            x       y       z     vdW  Elec       q    Type
                         _______ _______ _______ _____ _____    ______ ____

>  <TORSDO>
F 9

$$$$
