ox2_esm1_f8_ligand
 OpenBabel10052614223D

 18 19  0  0  0  0  0  0  0  0999 V2000
   -5.4950   -6.4060   -5.3210 C   0  0  0  0  0  0  0  0  0  0  0  0
   -5.4120   -5.0310   -5.1150 C   0  0  0  0  0  3  0  0  0  0  0  0
   -6.5540   -4.2940   -4.8630 C   0  0  0  0  0  3  0  0  0  0  0  0
   -7.7920   -4.9120   -4.8300 C   0  0  0  0  0  0  0  0  0  0  0  0
   -7.8840   -6.2960   -5.0350 C   0  0  0  0  0  0  0  0  0  0  0  0
   -6.7230   -7.0300   -5.2770 C   0  0  0  0  0  3  0  0  0  0  0  0
   -4.4350   -8.5870   -5.2360 C   0  0  0  0  0  1  0  0  0  0  0  0
   -4.3980   -7.1790   -5.5650 O   0  0  0  0  0  0  0  0  0  0  0  0
   -9.0370   -4.1270   -4.5700 C   0  0  0  0  0  0  0  0  0  0  0  0
   -9.9020   -4.0770   -5.4180 O   0  0  0  0  0  0  0  0  0  0  0  0
   -9.2430   -3.4160   -3.2900 C   0  0  0  0  0  0  0  0  0  0  0  0
   -9.2580   -2.0250   -3.2680 C   0  0  0  0  0  3  0  0  0  0  0  0
   -9.4610   -1.3590   -2.0620 C   0  0  0  0  0  3  0  0  0  0  0  0
   -9.6130   -2.0610   -0.8750 C   0  0  0  0  0  3  0  0  0  0  0  0
   -9.5550   -3.4450   -0.9000 C   0  0  0  0  0  3  0  0  0  0  0  0
   -9.3730   -4.1240   -2.1060 C   0  0  0  0  0  3  0  0  0  0  0  0
   -9.1110   -6.9000   -4.9910 O   0  0  0  0  0  0  0  0  0  0  0  0
   -9.9010   -6.4450   -5.3780 H   0  0  0  0  0  0  0  0  0  0  0  0
  1  6  2  0  0  0  0
  1  2  1  0  0  0  0
  2  3  2  0  0  0  0
  3  4  1  0  0  0  0
  4  9  1  0  0  0  0
  5 17  1  0  0  0  0
  5  4  2  0  0  0  0
  6  5  1  0  0  0  0
  8  1  1  0  0  0  0
  8  7  1  0  0  0  0
  9 11  1  0  0  0  0
 10  9  2  0  0  0  0
 11 12  2  0  0  0  0
 11 16  1  0  0  0  0
 12 13  1  0  0  0  0
 13 14  2  0  0  0  0
 15 14  1  0  0  0  0
 16 15  2  0  0  0  0
 18 17  1  0  0  0  0
M  END
>  <MODEL>
1

>  <REMARK>
 VINA RESULT:      -4.9      0.000      0.000
  Name = ox2_esm1_f8_ligand
  5 active torsions:
  status: ('A' for Active; 'I' for Inactive)
    1  A    between atoms: C_1  and  O_2
    2  A    between atoms: O_2  and  C_3
    3  A    between atoms: C_6  and  C_7
    4  A    between atoms: C_7  and  C_9
    5  A    between atoms: C_15  and  O_16
                            x       y       z     vdW  Elec       q    Type
                         _______ _______ _______ _____ _____    ______ ____

>  <TORSDO>
F 4

$$$$
ox2_esm1_f8_ligand
 OpenBabel10052614223D

 18 19  0  0  0  0  0  0  0  0999 V2000
   -5.0970    1.7530    5.0070 C   0  0  0  0  0  0  0  0  0  0  0  0
   -4.3900    2.8520    4.5270 C   0  0  0  0  0  3  0  0  0  0  0  0
   -3.0740    2.7110    4.1220 C   0  0  0  0  0  3  0  0  0  0  0  0
   -2.4460    1.4810    4.2070 C   0  0  0  0  0  0  0  0  0  0  0  0
   -3.1530    0.3690    4.6870 C   0  0  0  0  0  0  0  0  0  0  0  0
   -4.4810    0.5220    5.0810 C   0  0  0  0  0  3  0  0  0  0  0  0
   -7.2480    0.6720    5.3110 C   0  0  0  0  0  1  0  0  0  0  0  0
   -6.3980    1.8370    5.4100 O   0  0  0  0  0  0  0  0  0  0  0  0
   -1.0210    1.3150    3.7830 C   0  0  0  0  0  0  0  0  0  0  0  0
   -0.7700    0.8150    2.7080 O   0  0  0  0  0  0  0  0  0  0  0  0
    0.0920    1.7610    4.6470 C   0  0  0  0  0  0  0  0  0  0  0  0
    0.5590    0.9270    5.6580 C   0  0  0  0  0  3  0  0  0  0  0  0
    1.6130    1.3460    6.4640 C   0  0  0  0  0  3  0  0  0  0  0  0
    2.1850    2.6000    6.2980 C   0  0  0  0  0  3  0  0  0  0  0  0
    1.6870    3.4410    5.3150 C   0  0  0  0  0  3  0  0  0  0  0  0
    0.6440    3.0230    4.4880 C   0  0  0  0  0  3  0  0  0  0  0  0
   -2.5250   -0.8450    4.7570 O   0  0  0  0  0  0  0  0  0  0  0  0
   -2.3160   -1.3420    3.9270 H   0  0  0  0  0  0  0  0  0  0  0  0
  1  6  1  0  0  0  0
  1  8  1  0  0  0  0
  2  1  2  0  0  0  0
  3  4  2  0  0  0  0
  3  2  1  0  0  0  0
  4  5  1  0  0  0  0
  5 17  1  0  0  0  0
  5  6  2  0  0  0  0
  7  8  1  0  0  0  0
  9  4  1  0  0  0  0
  9 11  1  0  0  0  0
 10  9  2  0  0  0  0
 11 12  1  0  0  0  0
 12 13  2  0  0  0  0
 14 13  1  0  0  0  0
 15 14  2  0  0  0  0
 16 11  2  0  0  0  0
 16 15  1  0  0  0  0
 18 17  1  0  0  0  0
M  END
>  <MODEL>
2

>  <REMARK>
 VINA RESULT:      -4.7     11.246     13.416
  Name = ox2_esm1_f8_ligand
  5 active torsions:
  status: ('A' for Active; 'I' for Inactive)
    1  A    between atoms: C_1  and  O_2
    2  A    between atoms: O_2  and  C_3
    3  A    between atoms: C_6  and  C_7
    4  A    between atoms: C_7  and  C_9
    5  A    between atoms: C_15  and  O_16
                            x       y       z     vdW  Elec       q    Type
                         _______ _______ _______ _____ _____    ______ ____

>  <TORSDO>
F 4

$$$$
ox2_esm1_f8_ligand
 OpenBabel10052614223D

 18 19  0  0  0  0  0  0  0  0999 V2000
   -8.3870    5.8540    4.9760 C   0  0  0  0  0  0  0  0  0  0  0  0
   -7.3440    5.6080    5.8650 C   0  0  0  0  0  3  0  0  0  0  0  0
   -6.3190    4.7470    5.5160 C   0  0  0  0  0  3  0  0  0  0  0  0
   -6.3310    4.1110    4.2870 C   0  0  0  0  0  0  0  0  0  0  0  0
   -7.3760    4.3550    3.3860 C   0  0  0  0  0  0  0  0  0  0  0  0
   -8.3970    5.2340    3.7460 C   0  0  0  0  0  3  0  0  0  0  0  0
   -9.8850    7.6240    4.2590 C   0  0  0  0  0  1  0  0  0  0  0  0
   -9.4160    6.7010    5.2690 O   0  0  0  0  0  0  0  0  0  0  0  0
   -5.2360    3.1690    3.9000 C   0  0  0  0  0  0  0  0  0  0  0  0
   -4.3550    3.5460    3.1570 O   0  0  0  0  0  0  0  0  0  0  0  0
   -5.1970    1.7840    4.4160 C   0  0  0  0  0  0  0  0  0  0  0  0
   -4.0020    1.2620    4.9020 C   0  0  0  0  0  3  0  0  0  0  0  0
   -3.9700   -0.0390    5.3960 C   0  0  0  0  0  3  0  0  0  0  0  0
   -5.1050   -0.8380    5.3800 C   0  0  0  0  0  3  0  0  0  0  0  0
   -6.2810   -0.3240    4.8560 C   0  0  0  0  0  3  0  0  0  0  0  0
   -6.3300    0.9860    4.3780 C   0  0  0  0  0  3  0  0  0  0  0  0
   -7.3730    3.7280    2.1700 O   0  0  0  0  0  0  0  0  0  0  0  0
   -8.0680    3.0570    1.9570 H   0  0  0  0  0  0  0  0  0  0  0  0
  1  8  1  0  0  0  0
  1  2  1  0  0  0  0
  3  2  2  0  0  0  0
  4  3  1  0  0  0  0
  5  6  1  0  0  0  0
  5  4  2  0  0  0  0
  6  1  2  0  0  0  0
  7  8  1  0  0  0  0
  9  4  1  0  0  0  0
  9 11  1  0  0  0  0
 10  9  2  0  0  0  0
 11 12  1  0  0  0  0
 12 13  2  0  0  0  0
 14 13  1  0  0  0  0
 15 14  2  0  0  0  0
 16 11  2  0  0  0  0
 16 15  1  0  0  0  0
 17  5  1  0  0  0  0
 18 17  1  0  0  0  0
M  END
>  <MODEL>
3

>  <REMARK>
 VINA RESULT:      -4.6     10.653     13.178
  Name = ox2_esm1_f8_ligand
  5 active torsions:
  status: ('A' for Active; 'I' for Inactive)
    1  A    between atoms: C_1  and  O_2
    2  A    between atoms: O_2  and  C_3
    3  A    between atoms: C_6  and  C_7
    4  A    between atoms: C_7  and  C_9
    5  A    between atoms: C_15  and  O_16
                            x       y       z     vdW  Elec       q    Type
                         _______ _______ _______ _____ _____    ______ ____

>  <TORSDO>
F 4

$$$$
ox2_esm1_f8_ligand
 OpenBabel10052614223D

 18 19  0  0  0  0  0  0  0  0999 V2000
  -11.5910    2.8960   -4.6160 C   0  0  0  0  0  0  0  0  0  0  0  0
  -12.1860    2.2940   -3.5100 C   0  0  0  0  0  3  0  0  0  0  0  0
  -11.4290    1.5250   -2.6440 C   0  0  0  0  0  3  0  0  0  0  0  0
  -10.0790    1.3340   -2.8790 C   0  0  0  0  0  0  0  0  0  0  0  0
   -9.4720    1.9380   -3.9890 C   0  0  0  0  0  0  0  0  0  0  0  0
  -10.2440    2.7200   -4.8480 C   0  0  0  0  0  3  0  0  0  0  0  0
  -12.0560    5.0960   -5.5250 C   0  0  0  0  0  1  0  0  0  0  0  0
  -12.2910    3.6700   -5.4940 O   0  0  0  0  0  0  0  0  0  0  0  0
   -9.2500    0.4960   -1.9580 C   0  0  0  0  0  0  0  0  0  0  0  0
   -8.5620    1.0320   -1.1160 O   0  0  0  0  0  0  0  0  0  0  0  0
   -9.2630   -0.9800   -2.0440 C   0  0  0  0  0  0  0  0  0  0  0  0
   -8.9420   -1.6040   -3.2450 C   0  0  0  0  0  3  0  0  0  0  0  0
   -8.9460   -2.9940   -3.3210 C   0  0  0  0  0  3  0  0  0  0  0  0
   -9.2990   -3.7680   -2.2250 C   0  0  0  0  0  3  0  0  0  0  0  0
   -9.6570   -3.1370   -1.0440 C   0  0  0  0  0  3  0  0  0  0  0  0
   -9.6360   -1.7450   -0.9500 C   0  0  0  0  0  3  0  0  0  0  0  0
   -8.1350    1.7500   -4.2060 O   0  0  0  0  0  0  0  0  0  0  0  0
   -7.8310    1.1580   -4.9390 H   0  0  0  0  0  0  0  0  0  0  0  0
  1  2  1  0  0  0  0
  2  3  2  0  0  0  0
  4  3  1  0  0  0  0
  4  9  1  0  0  0  0
  5  4  2  0  0  0  0
  6  1  2  0  0  0  0
  6  5  1  0  0  0  0
  7  8  1  0  0  0  0
  8  1  1  0  0  0  0
  9 10  2  0  0  0  0
 11  9  1  0  0  0  0
 11 16  1  0  0  0  0
 12 11  2  0  0  0  0
 13 12  1  0  0  0  0
 13 14  2  0  0  0  0
 14 15  1  0  0  0  0
 15 16  2  0  0  0  0
 17  5  1  0  0  0  0
 18 17  1  0  0  0  0
M  END
>  <MODEL>
4

>  <REMARK>
 VINA RESULT:      -4.5      4.692      8.105
  Name = ox2_esm1_f8_ligand
  5 active torsions:
  status: ('A' for Active; 'I' for Inactive)
    1  A    between atoms: C_1  and  O_2
    2  A    between atoms: O_2  and  C_3
    3  A    between atoms: C_6  and  C_7
    4  A    between atoms: C_7  and  C_9
    5  A    between atoms: C_15  and  O_16
                            x       y       z     vdW  Elec       q    Type
                         _______ _______ _______ _____ _____    ______ ____

>  <TORSDO>
F 4

$$$$
ox2_esm1_f8_ligand
 OpenBabel10052614223D

 18 19  0  0  0  0  0  0  0  0999 V2000
   -8.1610    5.8500    4.8660 C   0  0  0  0  0  0  0  0  0  0  0  0
   -7.4860    5.2110    5.9040 C   0  0  0  0  0  3  0  0  0  0  0  0
   -6.8040    4.0310    5.6690 C   0  0  0  0  0  3  0  0  0  0  0  0
   -6.8000    3.4660    4.4060 C   0  0  0  0  0  0  0  0  0  0  0  0
   -7.4750    4.1040    3.3550 C   0  0  0  0  0  0  0  0  0  0  0  0
   -8.1490    5.2990    3.6030 C   0  0  0  0  0  3  0  0  0  0  0  0
   -9.0490    7.8960    3.9130 C   0  0  0  0  0  1  0  0  0  0  0  0
   -8.8410    7.0190    5.0430 O   0  0  0  0  0  0  0  0  0  0  0  0
   -6.0770    2.1850    4.1400 C   0  0  0  0  0  0  0  0  0  0  0  0
   -6.6920    1.2230    3.7310 O   0  0  0  0  0  0  0  0  0  0  0  0
   -4.6190    2.0690    4.3520 C   0  0  0  0  0  0  0  0  0  0  0  0
   -3.7660    3.0400    3.8370 C   0  0  0  0  0  3  0  0  0  0  0  0
   -2.3940    2.9330    4.0460 C   0  0  0  0  0  3  0  0  0  0  0  0
   -1.8580    1.8520    4.7320 C   0  0  0  0  0  3  0  0  0  0  0  0
   -2.7110    0.8670    5.2050 C   0  0  0  0  0  3  0  0  0  0  0  0
   -4.0890    0.9750    5.0200 C   0  0  0  0  0  3  0  0  0  0  0  0
   -7.4560    3.5420    2.1080 O   0  0  0  0  0  0  0  0  0  0  0  0
   -8.1520    3.7820    1.4470 H   0  0  0  0  0  0  0  0  0  0  0  0
  1  8  1  0  0  0  0
  1  2  1  0  0  0  0
  3  2  2  0  0  0  0
  4  3  1  0  0  0  0
  5  6  1  0  0  0  0
  5  4  2  0  0  0  0
  6  1  2  0  0  0  0
  7  8  1  0  0  0  0
  9 11  1  0  0  0  0
  9  4  1  0  0  0  0
 10  9  2  0  0  0  0
 11 16  1  0  0  0  0
 12 13  1  0  0  0  0
 12 11  2  0  0  0  0
 13 14  2  0  0  0  0
 14 15  1  0  0  0  0
 16 15  2  0  0  0  0
 17  5  1  0  0  0  0
 18 17  1  0  0  0  0
M  END
>  <MODEL>
5

>  <REMARK>
 VINA RESULT:      -4.5     11.115     13.274
  Name = ox2_esm1_f8_ligand
  5 active torsions:
  status: ('A' for Active; 'I' for Inactive)
    1  A    between atoms: C_1  and  O_2
    2  A    between atoms: O_2  and  C_3
    3  A    between atoms: C_6  and  C_7
    4  A    between atoms: C_7  and  C_9
    5  A    between atoms: C_15  and  O_16
                            x       y       z     vdW  Elec       q    Type
                         _______ _______ _______ _____ _____    ______ ____

>  <TORSDO>
F 4

$$$$
ox2_esm1_f8_ligand
 OpenBabel10052614223D

 18 19  0  0  0  0  0  0  0  0999 V2000
    2.1350    2.1820    6.2830 C   0  0  0  0  0  0  0  0  0  0  0  0
    1.6720    3.1640    5.4100 C   0  0  0  0  0  3  0  0  0  0  0  0
    0.5730    2.9190    4.6070 C   0  0  0  0  0  3  0  0  0  0  0  0
   -0.0660    1.6920    4.6520 C   0  0  0  0  0  0  0  0  0  0  0  0
    0.3930    0.7000    5.5300 C   0  0  0  0  0  0  0  0  0  0  0  0
    1.4950    0.9640    6.3420 C   0  0  0  0  0  3  0  0  0  0  0  0
    4.3650    1.5190    6.9710 C   0  0  0  0  0  1  0  0  0  0  0  0
    3.2090    2.3770    7.1020 O   0  0  0  0  0  0  0  0  0  0  0  0
   -1.2490    1.4090    3.7820 C   0  0  0  0  0  0  0  0  0  0  0  0
   -1.1170    0.7070    2.8020 O   0  0  0  0  0  0  0  0  0  0  0  0
   -2.5830    1.9580    4.0990 C   0  0  0  0  0  0  0  0  0  0  0  0
   -3.4820    1.2010    4.8440 C   0  0  0  0  0  3  0  0  0  0  0  0
   -4.7360    1.7240    5.1490 C   0  0  0  0  0  3  0  0  0  0  0  0
   -5.1180    2.9780    4.6910 C   0  0  0  0  0  3  0  0  0  0  0  0
   -4.2310    3.7080    3.9150 C   0  0  0  0  0  3  0  0  0  0  0  0
   -2.9650    3.2020    3.6210 C   0  0  0  0  0  3  0  0  0  0  0  0
   -0.2510   -0.5060    5.5740 O   0  0  0  0  0  0  0  0  0  0  0  0
    0.2310   -1.3340    5.3270 H   0  0  0  0  0  0  0  0  0  0  0  0
  1  6  1  0  0  0  0
  1  8  1  0  0  0  0
  2  1  2  0  0  0  0
  3  4  2  0  0  0  0
  3  2  1  0  0  0  0
  4  5  1  0  0  0  0
  5 17  1  0  0  0  0
  5  6  2  0  0  0  0
  7  8  1  0  0  0  0
  9 11  1  0  0  0  0
  9  4  1  0  0  0  0
 10  9  2  0  0  0  0
 11 12  1  0  0  0  0
 12 13  2  0  0  0  0
 14 13  1  0  0  0  0
 15 14  2  0  0  0  0
 16 15  1  0  0  0  0
 16 11  2  0  0  0  0
 18 17  1  0  0  0  0
M  END
>  <MODEL>
6

>  <REMARK>
 VINA RESULT:      -4.5     12.225     13.724
  Name = ox2_esm1_f8_ligand
  5 active torsions:
  status: ('A' for Active; 'I' for Inactive)
    1  A    between atoms: C_1  and  O_2
    2  A    between atoms: O_2  and  C_3
    3  A    between atoms: C_6  and  C_7
    4  A    between atoms: C_7  and  C_9
    5  A    between atoms: C_15  and  O_16
                            x       y       z     vdW  Elec       q    Type
                         _______ _______ _______ _____ _____    ______ ____

>  <TORSDO>
F 4

$$$$
ox2_esm1_f8_ligand
 OpenBabel10052614223D

 18 19  0  0  0  0  0  0  0  0999 V2000
  -10.4580    2.9620   -5.2110 C   0  0  0  0  0  0  0  0  0  0  0  0
   -9.3490    2.1360   -5.3840 C   0  0  0  0  0  3  0  0  0  0  0  0
   -8.9120    1.3320   -4.3470 C   0  0  0  0  0  3  0  0  0  0  0  0
   -9.5620    1.3520   -3.1260 C   0  0  0  0  0  0  0  0  0  0  0  0
  -10.6810    2.1780   -2.9450 C   0  0  0  0  0  0  0  0  0  0  0  0
  -11.1180    2.9760   -4.0020 C   0  0  0  0  0  3  0  0  0  0  0  0
  -11.6650    4.9650   -5.8570 C   0  0  0  0  0  1  0  0  0  0  0  0
  -10.9340    3.7670   -6.2050 O   0  0  0  0  0  0  0  0  0  0  0  0
   -9.0950    0.4960   -1.9920 C   0  0  0  0  0  0  0  0  0  0  0  0
   -8.6020    1.0150   -1.0130 O   0  0  0  0  0  0  0  0  0  0  0  0
   -9.2340   -0.9750   -2.0330 C   0  0  0  0  0  0  0  0  0  0  0  0
   -9.6530   -1.6610   -0.8980 C   0  0  0  0  0  3  0  0  0  0  0  0
   -9.7910   -3.0450   -0.9420 C   0  0  0  0  0  3  0  0  0  0  0  0
   -9.4830   -3.7580   -2.0930 C   0  0  0  0  0  3  0  0  0  0  0  0
   -9.0250   -3.0710   -3.2070 C   0  0  0  0  0  3  0  0  0  0  0  0
   -8.9040   -1.6810   -3.1800 C   0  0  0  0  0  3  0  0  0  0  0  0
  -11.3220    2.1830   -1.7370 O   0  0  0  0  0  0  0  0  0  0  0  0
  -11.2410    1.4050   -1.1300 H   0  0  0  0  0  0  0  0  0  0  0  0
  1  6  1  0  0  0  0
  2  1  2  0  0  0  0
  2  3  1  0  0  0  0
  3  4  2  0  0  0  0
  4  5  1  0  0  0  0
  4  9  1  0  0  0  0
  5 17  1  0  0  0  0
  6  5  2  0  0  0  0
  8  7  1  0  0  0  0
  8  1  1  0  0  0  0
  9 10  2  0  0  0  0
 11  9  1  0  0  0  0
 11 12  1  0  0  0  0
 13 12  2  0  0  0  0
 14 13  1  0  0  0  0
 15 16  1  0  0  0  0
 15 14  2  0  0  0  0
 16 11  2  0  0  0  0
 17 18  1  0  0  0  0
M  END
>  <MODEL>
7

>  <REMARK>
 VINA RESULT:      -4.5      4.838      7.950
  Name = ox2_esm1_f8_ligand
  5 active torsions:
  status: ('A' for Active; 'I' for Inactive)
    1  A    between atoms: C_1  and  O_2
    2  A    between atoms: O_2  and  C_3
    3  A    between atoms: C_6  and  C_7
    4  A    between atoms: C_7  and  C_9
    5  A    between atoms: C_15  and  O_16
                            x       y       z     vdW  Elec       q    Type
                         _______ _______ _______ _____ _____    ______ ____

>  <TORSDO>
F 4

$$$$
ox2_esm1_f8_ligand
 OpenBabel10052614223D

 18 19  0  0  0  0  0  0  0  0999 V2000
   -7.6820    1.3740    5.4080 C   0  0  0  0  0  0  0  0  0  0  0  0
   -6.7520    2.1310    4.6980 C   0  0  0  0  0  3  0  0  0  0  0  0
   -5.4730    1.6470    4.4910 C   0  0  0  0  0  3  0  0  0  0  0  0
   -5.1020    0.4150    5.0000 C   0  0  0  0  0  0  0  0  0  0  0  0
   -6.0320   -0.3530    5.7140 C   0  0  0  0  0  0  0  0  0  0  0  0
   -7.3220    0.1410    5.9070 C   0  0  0  0  0  3  0  0  0  0  0  0
   -9.2580    3.2140    5.5400 C   0  0  0  0  0  1  0  0  0  0  0  0
   -8.9570    1.8030    5.6330 O   0  0  0  0  0  0  0  0  0  0  0  0
   -3.7190   -0.1170    4.7940 C   0  0  0  0  0  0  0  0  0  0  0  0
   -3.5660   -1.2700    4.4500 O   0  0  0  0  0  0  0  0  0  0  0  0
   -2.5310    0.7400    4.9880 C   0  0  0  0  0  0  0  0  0  0  0  0
   -2.1970    1.1780    6.2650 C   0  0  0  0  0  3  0  0  0  0  0  0
   -1.0720    1.9780    6.4460 C   0  0  0  0  0  3  0  0  0  0  0  0
   -0.2960    2.3760    5.3660 C   0  0  0  0  0  3  0  0  0  0  0  0
   -0.6600    1.9690    4.0920 C   0  0  0  0  0  3  0  0  0  0  0  0
   -1.7740    1.1500    3.9010 C   0  0  0  0  0  3  0  0  0  0  0  0
   -5.6580   -1.5740    6.2050 O   0  0  0  0  0  0  0  0  0  0  0  0
   -6.3080   -2.3210    6.2240 H   0  0  0  0  0  0  0  0  0  0  0  0
  1  8  1  0  0  0  0
  1  6  1  0  0  0  0
  2  1  2  0  0  0  0
  3  2  1  0  0  0  0
  3  4  2  0  0  0  0
  4  5  1  0  0  0  0
  5  6  2  0  0  0  0
  5 17  1  0  0  0  0
  7  8  1  0  0  0  0
  9 11  1  0  0  0  0
  9  4  1  0  0  0  0
 10  9  2  0  0  0  0
 11 12  1  0  0  0  0
 12 13  2  0  0  0  0
 14 13  1  0  0  0  0
 15 14  2  0  0  0  0
 16 15  1  0  0  0  0
 16 11  2  0  0  0  0
 17 18  1  0  0  0  0
M  END
>  <MODEL>
8

>  <REMARK>
 VINA RESULT:      -4.4     10.910     12.607
  Name = ox2_esm1_f8_ligand
  5 active torsions:
  status: ('A' for Active; 'I' for Inactive)
    1  A    between atoms: C_1  and  O_2
    2  A    between atoms: O_2  and  C_3
    3  A    between atoms: C_6  and  C_7
    4  A    between atoms: C_7  and  C_9
    5  A    between atoms: C_15  and  O_16
                            x       y       z     vdW  Elec       q    Type
                         _______ _______ _______ _____ _____    ______ ____

>  <TORSDO>
F 4

$$$$
ox2_esm1_f8_ligand
 OpenBabel10052614223D

 18 19  0  0  0  0  0  0  0  0999 V2000
   -9.2020    0.5610   -5.2060 C   0  0  0  0  0  0  0  0  0  0  0  0
   -9.1290   -0.2070   -6.3660 C   0  0  0  0  0  3  0  0  0  0  0  0
   -9.0680   -1.5870   -6.2850 C   0  0  0  0  0  3  0  0  0  0  0  0
   -9.0640   -2.2140   -5.0520 C   0  0  0  0  0  0  0  0  0  0  0  0
   -9.1390   -1.4480   -3.8800 C   0  0  0  0  0  0  0  0  0  0  0  0
   -9.2110   -0.0590   -3.9760 C   0  0  0  0  0  3  0  0  0  0  0  0
  -10.5670    2.5660   -5.2580 C   0  0  0  0  0  1  0  0  0  0  0  0
   -9.2720    1.9230   -5.2330 O   0  0  0  0  0  0  0  0  0  0  0  0
   -8.9880   -3.7040   -4.9480 C   0  0  0  0  0  0  0  0  0  0  0  0
   -9.9550   -4.3290   -4.5680 O   0  0  0  0  0  0  0  0  0  0  0  0
   -7.7570   -4.4360   -5.3130 C   0  0  0  0  0  0  0  0  0  0  0  0
   -7.8020   -5.4100   -6.3060 C   0  0  0  0  0  3  0  0  0  0  0  0
   -6.6390   -6.0920   -6.6540 C   0  0  0  0  0  3  0  0  0  0  0  0
   -5.4410   -5.8410   -6.0010 C   0  0  0  0  0  3  0  0  0  0  0  0
   -5.4140   -4.9000   -4.9840 C   0  0  0  0  0  3  0  0  0  0  0  0
   -6.5690   -4.1950   -4.6410 C   0  0  0  0  0  3  0  0  0  0  0  0
   -9.1440   -2.0790   -2.6660 O   0  0  0  0  0  0  0  0  0  0  0  0
   -8.3340   -2.0620   -2.0970 H   0  0  0  0  0  0  0  0  0  0  0  0
  1  6  1  0  0  0  0
  2  3  1  0  0  0  0
  2  1  2  0  0  0  0
  3  4  2  0  0  0  0
  4  9  1  0  0  0  0
  4  5  1  0  0  0  0
  5 17  1  0  0  0  0
  6  5  2  0  0  0  0
  7  8  1  0  0  0  0
  8  1  1  0  0  0  0
  9 10  2  0  0  0  0
 11  9  1  0  0  0  0
 11 16  1  0  0  0  0
 12 11  2  0  0  0  0
 13 12  1  0  0  0  0
 13 14  2  0  0  0  0
 14 15  1  0  0  0  0
 15 16  2  0  0  0  0
 17 18  1  0  0  0  0
M  END
>  <MODEL>
9

>  <REMARK>
 VINA RESULT:      -4.4      2.701      6.402
  Name = ox2_esm1_f8_ligand
  5 active torsions:
  status: ('A' for Active; 'I' for Inactive)
    1  A    between atoms: C_1  and  O_2
    2  A    between atoms: O_2  and  C_3
    3  A    between atoms: C_6  and  C_7
    4  A    between atoms: C_7  and  C_9
    5  A    between atoms: C_15  and  O_16
                            x       y       z     vdW  Elec       q    Type
                         _______ _______ _______ _____ _____    ______ ____

>  <TORSDO>
F 4

$$$$
