shuffle_control_ligand
     RDKit          3D

 20 20  0  0  0  0  0  0  0  0999 V2000
   -3.1950    1.0670    9.5520 C   0  0  0  0  0  0  0  0  0  0  0  0
   -2.7950   -0.3060    9.1710 C   0  0  0  0  0  0  0  0  0  0  0  0
   -1.6930   -0.3190    8.2070 C   0  0  0  0  0  0  0  0  0  0  0  0
   -1.1240   -1.6310    7.9560 C   0  0  0  0  0  0  0  0  0  0  0  0
   -0.1060   -1.7110    6.8570 C   0  0  2  0  0  0  0  0  0  0  0  0
    0.6020   -3.0530    6.8320 C   0  0  0  0  0  0  0  0  0  0  0  0
    2.0200   -3.0040    6.4250 C   0  0  0  0  0  0  0  0  0  0  0  0
    0.8790   -0.7270    7.0940 O   0  0  0  0  0  0  0  0  0  0  0  0
    1.0930    0.2180    6.2000 C   0  0  0  0  0  0  0  0  0  0  0  0
    0.3930    0.3820    5.2540 O   0  0  0  0  0  0  0  0  0  0  0  0
    2.2610    1.0140    6.5550 C   0  0  0  0  0  0  0  0  0  0  0  0
    2.2460    2.3630    6.3310 C   0  0  0  0  0  0  0  0  0  0  0  0
    3.4040    3.1940    6.5400 C   0  0  0  0  0  0  0  0  0  0  0  0
    4.6730    2.7090    6.4260 C   0  0  0  0  0  0  0  0  0  0  0  0
    5.7460    3.5160    6.6250 C   0  0  0  0  0  0  0  0  0  0  0  0
    5.5520    4.8300    6.9290 C   0  0  0  0  0  0  0  0  0  0  0  0
    6.5750    5.6820    7.1420 O   0  0  0  0  0  0  0  0  0  0  0  0
    7.8480    5.3220    6.6340 C   0  0  0  0  0  0  0  0  0  0  0  0
    4.2660    5.3300    7.0480 C   0  0  0  0  0  0  0  0  0  0  0  0
    3.2030    4.5130    6.8360 C   0  0  0  0  0  0  0  0  0  0  0  0
  2  1  1  0
  3  2  1  0
  4  3  1  0
  5  4  1  1
  6  5  1  0
  7  6  1  0
  8  5  1  0
  9  8  1  0
 10  9  2  0
 11  9  1  0
 12 11  2  3
 13 12  1  0
 14 13  1  0
 15 14  2  0
 16 15  1  0
 17 16  1  0
 18 17  1  0
 19 16  2  0
 20 19  1  0
 20 13  2  0
M  END
