ox1_orig_f12_ligand
 OpenBabel10092621193D

 18 19  0  0  0  0  0  0  0  0999 V2000
   -0.2000   -0.9000   -1.3850 C   0  0  0  0  0  0  0  0  0  0  0  0
    1.1170   -0.5110   -1.6030 C   0  0  0  0  0  3  0  0  0  0  0  0
    1.9560   -0.2780   -0.5220 C   0  0  0  0  0  3  0  0  0  0  0  0
    1.4890   -0.4190    0.7820 C   0  0  0  0  0  0  0  0  0  0  0  0
    0.1730   -0.8140    0.9920 C   0  0  0  0  0  0  0  0  0  0  0  0
   -0.6600   -1.0560   -0.0890 C   0  0  0  0  0  3  0  0  0  0  0  0
   -0.4140   -1.5040   -3.7030 C   0  0  0  0  0  1  0  0  0  0  0  0
   -0.9960   -1.1160   -2.4800 O   0  0  0  0  0  0  0  0  0  0  0  0
    2.3830   -0.1760    1.9680 C   0  0  0  0  0  0  0  0  0  0  0  0
    2.1470    0.7870    2.6700 O   0  0  0  0  0  0  0  0  0  0  0  0
    3.5040   -1.0710    2.3370 C   0  0  0  0  0  0  0  0  0  0  0  0
    4.7780   -0.9000    1.8110 C   0  0  0  0  0  3  0  0  0  0  0  0
    5.8020   -1.7500    2.1620 C   0  0  0  0  0  3  0  0  0  0  0  0
    5.5700   -2.7890    3.0500 C   0  0  0  0  0  3  0  0  0  0  0  0
    4.3070   -2.9620    3.6000 C   0  0  0  0  0  3  0  0  0  0  0  0
    3.2700   -2.0950    3.2650 C   0  0  0  0  0  3  0  0  0  0  0  0
   -0.2730   -0.9630    2.2640 O   0  0  0  0  0  0  0  0  0  0  0  0
   -1.2200   -1.1960    2.4330 H   0  0  0  0  0  0  0  0  0  0  0  0
  1  6  1  0  0  0  0
  2  1  2  0  0  0  0
  2  3  1  0  0  0  0
  3  4  2  0  0  0  0
  4  5  1  0  0  0  0
  4  9  1  0  0  0  0
  5 17  1  0  0  0  0
  6  5  2  0  0  0  0
  7  8  1  0  0  0  0
  8  1  1  0  0  0  0
  9 11  1  0  0  0  0
  9 10  2  0  0  0  0
 11 16  1  0  0  0  0
 12 13  1  0  0  0  0
 12 11  2  0  0  0  0
 13 14  2  0  0  0  0
 14 15  1  0  0  0  0
 16 15  2  0  0  0  0
 17 18  1  0  0  0  0
M  END
>  <MODEL>
1

>  <REMARK>
 VINA RESULT:      -3.4      0.000      0.000
  Name = ox1_orig_f12_ligand
  5 active torsions:
  status: ('A' for Active; 'I' for Inactive)
    1  A    between atoms: C_1  and  O_2
    2  A    between atoms: O_2  and  C_3
    3  A    between atoms: C_6  and  C_7
    4  A    between atoms: C_7  and  C_9
    5  A    between atoms: C_15  and  O_16
                            x       y       z     vdW  Elec       q    Type
                         _______ _______ _______ _____ _____    ______ ____

>  <TORSDO>
F 4

$$$$
ox1_orig_f12_ligand
 OpenBabel10092621193D

 18 19  0  0  0  0  0  0  0  0999 V2000
   -4.0740    1.1070    0.5760 C   0  0  0  0  0  0  0  0  0  0  0  0
   -3.0160    1.9020    0.1490 C   0  0  0  0  0  3  0  0  0  0  0  0
   -1.8340    1.3120   -0.2750 C   0  0  0  0  0  3  0  0  0  0  0  0
   -1.6910   -0.0730   -0.2670 C   0  0  0  0  0  0  0  0  0  0  0  0
   -2.7540   -0.8630    0.1540 C   0  0  0  0  0  0  0  0  0  0  0  0
   -3.9370   -0.2700    0.5680 C   0  0  0  0  0  3  0  0  0  0  0  0
   -5.3140    2.2270    2.3050 C   0  0  0  0  0  1  0  0  0  0  0  0
   -5.2210    1.7300    0.9900 O   0  0  0  0  0  0  0  0  0  0  0  0
   -0.4190   -0.7350   -0.7260 C   0  0  0  0  0  0  0  0  0  0  0  0
   -0.4510   -1.3750   -1.7580 O   0  0  0  0  0  0  0  0  0  0  0  0
    0.8670   -0.6120   -0.0020 C   0  0  0  0  0  0  0  0  0  0  0  0
    2.0280   -0.1940   -0.6410 C   0  0  0  0  0  3  0  0  0  0  0  0
    3.2130   -0.0950    0.0510 C   0  0  0  0  0  3  0  0  0  0  0  0
    3.2600   -0.4120    1.4000 C   0  0  0  0  0  3  0  0  0  0  0  0
    2.1050   -0.8130    2.0570 C   0  0  0  0  0  3  0  0  0  0  0  0
    0.8970   -0.8970    1.3700 C   0  0  0  0  0  3  0  0  0  0  0  0
   -2.6140   -2.2120    0.1470 O   0  0  0  0  0  0  0  0  0  0  0  0
   -1.8720   -2.6300   -0.3580 H   0  0  0  0  0  0  0  0  0  0  0  0
  1  8  1  0  0  0  0
  2  1  2  0  0  0  0
  3  4  2  0  0  0  0
  3  2  1  0  0  0  0
  4  5  1  0  0  0  0
  5  6  2  0  0  0  0
  6  1  1  0  0  0  0
  8  7  1  0  0  0  0
  9  4  1  0  0  0  0
  9 11  1  0  0  0  0
 10  9  2  0  0  0  0
 11 16  1  0  0  0  0
 12 11  2  0  0  0  0
 12 13  1  0  0  0  0
 13 14  2  0  0  0  0
 14 15  1  0  0  0  0
 16 15  2  0  0  0  0
 17  5  1  0  0  0  0
 18 17  1  0  0  0  0
M  END
>  <MODEL>
2

>  <REMARK>
 VINA RESULT:      -3.1      2.925      4.505
  Name = ox1_orig_f12_ligand
  5 active torsions:
  status: ('A' for Active; 'I' for Inactive)
    1  A    between atoms: C_1  and  O_2
    2  A    between atoms: O_2  and  C_3
    3  A    between atoms: C_6  and  C_7
    4  A    between atoms: C_7  and  C_9
    5  A    between atoms: C_15  and  O_16
                            x       y       z     vdW  Elec       q    Type
                         _______ _______ _______ _____ _____    ______ ____

>  <TORSDO>
F 4

$$$$
ox1_orig_f12_ligand
 OpenBabel10092621193D

 18 19  0  0  0  0  0  0  0  0999 V2000
    2.9110   -8.2160   -1.9970 C   0  0  0  0  0  0  0  0  0  0  0  0
    4.2280   -8.0790   -1.5700 C   0  0  0  0  0  3  0  0  0  0  0  0
    4.4980   -7.8430   -0.2300 C   0  0  0  0  0  3  0  0  0  0  0  0
    3.4630   -7.7310    0.6940 C   0  0  0  0  0  0  0  0  0  0  0  0
    2.1490   -7.8760    0.2610 C   0  0  0  0  0  0  0  0  0  0  0  0
    1.8830   -8.1210   -1.0770 C   0  0  0  0  0  3  0  0  0  0  0  0
    1.3790   -8.6930   -3.7880 C   0  0  0  0  0  1  0  0  0  0  0  0
    2.6880   -8.4460   -3.3300 O   0  0  0  0  0  0  0  0  0  0  0  0
    3.7330   -7.4790    2.1530 C   0  0  0  0  0  0  0  0  0  0  0  0
    3.5860   -8.4030    2.9260 O   0  0  0  0  0  0  0  0  0  0  0  0
    4.2020   -6.1760    2.6780 C   0  0  0  0  0  0  0  0  0  0  0  0
    3.3360   -5.2820    3.2940 C   0  0  0  0  0  3  0  0  0  0  0  0
    3.7940   -4.0730    3.7670 C   0  0  0  0  0  3  0  0  0  0  0  0
    5.1320   -3.7350    3.6320 C   0  0  0  0  0  3  0  0  0  0  0  0
    6.0140   -4.6250    3.0350 C   0  0  0  0  0  3  0  0  0  0  0  0
    5.5640   -5.8580    2.5710 C   0  0  0  0  0  3  0  0  0  0  0  0
    1.1450   -7.7780    1.1670 O   0  0  0  0  0  0  0  0  0  0  0  0
    1.2390   -8.2010    2.0580 H   0  0  0  0  0  0  0  0  0  0  0  0
  1  2  2  0  0  0  0
  1  6  1  0  0  0  0
  2  3  1  0  0  0  0
  3  4  2  0  0  0  0
  4  9  1  0  0  0  0
  5  4  1  0  0  0  0
  5 17  1  0  0  0  0
  6  5  2  0  0  0  0
  7  8  1  0  0  0  0
  8  1  1  0  0  0  0
  9 11  1  0  0  0  0
  9 10  2  0  0  0  0
 11 12  1  0  0  0  0
 12 13  2  0  0  0  0
 14 13  1  0  0  0  0
 15 14  2  0  0  0  0
 16 11  2  0  0  0  0
 16 15  1  0  0  0  0
 17 18  1  0  0  0  0
M  END
>  <MODEL>
3

>  <REMARK>
 VINA RESULT:      -3.0      5.808      6.718
  Name = ox1_orig_f12_ligand
  5 active torsions:
  status: ('A' for Active; 'I' for Inactive)
    1  A    between atoms: C_1  and  O_2
    2  A    between atoms: O_2  and  C_3
    3  A    between atoms: C_6  and  C_7
    4  A    between atoms: C_7  and  C_9
    5  A    between atoms: C_15  and  O_16
                            x       y       z     vdW  Elec       q    Type
                         _______ _______ _______ _____ _____    ______ ____

>  <TORSDO>
F 4

$$$$
ox1_orig_f12_ligand
 OpenBabel10092621193D

 18 19  0  0  0  0  0  0  0  0999 V2000
   -2.1230    0.6490    1.9080 C   0  0  0  0  0  0  0  0  0  0  0  0
   -1.5800    1.6830    1.1520 C   0  0  0  0  0  3  0  0  0  0  0  0
   -0.2660    1.6030    0.7130 C   0  0  0  0  0  3  0  0  0  0  0  0
    0.5220    0.5010    1.0320 C   0  0  0  0  0  0  0  0  0  0  0  0
   -0.0280   -0.5320    1.7820 C   0  0  0  0  0  0  0  0  0  0  0  0
   -1.3440   -0.4540    2.2100 C   0  0  0  0  0  3  0  0  0  0  0  0
   -4.3970    1.2750    1.4390 C   0  0  0  0  0  1  0  0  0  0  0  0
   -3.4230    0.7690    2.3230 O   0  0  0  0  0  0  0  0  0  0  0  0
    1.9480    0.3920    0.5630 C   0  0  0  0  0  0  0  0  0  0  0  0
    2.8290    0.6420    1.3600 O   0  0  0  0  0  0  0  0  0  0  0  0
    2.3230   -0.0400   -0.8030 C   0  0  0  0  0  0  0  0  0  0  0  0
    1.3700   -0.2320   -1.7950 C   0  0  0  0  0  3  0  0  0  0  0  0
    1.7420   -0.6410   -3.0550 C   0  0  0  0  0  3  0  0  0  0  0  0
    3.0780   -0.8660   -3.3480 C   0  0  0  0  0  3  0  0  0  0  0  0
    4.0440   -0.6610   -2.3730 C   0  0  0  0  0  3  0  0  0  0  0  0
    3.6800   -0.2280   -1.1010 C   0  0  0  0  0  3  0  0  0  0  0  0
    0.7400   -1.6100    2.0780 O   0  0  0  0  0  0  0  0  0  0  0  0
    0.3570   -2.3650    2.5910 H   0  0  0  0  0  0  0  0  0  0  0  0
  1  6  1  0  0  0  0
  1  8  1  0  0  0  0
  2  1  2  0  0  0  0
  3  4  2  0  0  0  0
  3  2  1  0  0  0  0
  4  5  1  0  0  0  0
  5 17  1  0  0  0  0
  5  6  2  0  0  0  0
  7  8  1  0  0  0  0
  9  4  1  0  0  0  0
  9 10  2  0  0  0  0
 11  9  1  0  0  0  0
 12 11  2  0  0  0  0
 13 12  1  0  0  0  0
 14 13  2  0  0  0  0
 14 15  1  0  0  0  0
 15 16  2  0  0  0  0
 16 11  1  0  0  0  0
 17 18  1  0  0  0  0
M  END
>  <MODEL>
4

>  <REMARK>
 VINA RESULT:      -3.0      2.963      4.478
  Name = ox1_orig_f12_ligand
  5 active torsions:
  status: ('A' for Active; 'I' for Inactive)
    1  A    between atoms: C_1  and  O_2
    2  A    between atoms: O_2  and  C_3
    3  A    between atoms: C_6  and  C_7
    4  A    between atoms: C_7  and  C_9
    5  A    between atoms: C_15  and  O_16
                            x       y       z     vdW  Elec       q    Type
                         _______ _______ _______ _____ _____    ______ ____

>  <TORSDO>
F 4

$$$$
ox1_orig_f12_ligand
 OpenBabel10092621193D

 18 19  0  0  0  0  0  0  0  0999 V2000
   -0.3020    2.0510    2.7620 C   0  0  0  0  0  0  0  0  0  0  0  0
   -0.7660    2.4950    1.5280 C   0  0  0  0  0  3  0  0  0  0  0  0
   -0.8250    1.6180    0.4550 C   0  0  0  0  0  3  0  0  0  0  0  0
   -0.4140    0.2950    0.5970 C   0  0  0  0  0  0  0  0  0  0  0  0
    0.0410   -0.1440    1.8350 C   0  0  0  0  0  0  0  0  0  0  0  0
    0.0900    0.7320    2.9070 C   0  0  0  0  0  3  0  0  0  0  0  0
    0.7810    2.8750    4.7440 C   0  0  0  0  0  1  0  0  0  0  0  0
   -0.2570    2.9510    3.7940 O   0  0  0  0  0  0  0  0  0  0  0  0
   -0.4740   -0.6750   -0.5520 C   0  0  0  0  0  0  0  0  0  0  0  0
   -1.3950   -1.4650   -0.5830 O   0  0  0  0  0  0  0  0  0  0  0  0
    0.5120   -0.6850   -1.6580 C   0  0  0  0  0  0  0  0  0  0  0  0
    1.8650   -0.4640   -1.4320 C   0  0  0  0  0  3  0  0  0  0  0  0
    2.7610   -0.4690   -2.4760 C   0  0  0  0  0  3  0  0  0  0  0  0
    2.3200   -0.6990   -3.7700 C   0  0  0  0  0  3  0  0  0  0  0  0
    0.9740   -0.9400   -4.0100 C   0  0  0  0  0  3  0  0  0  0  0  0
    0.0630   -0.9560   -2.9580 C   0  0  0  0  0  3  0  0  0  0  0  0
    0.4280   -1.4370    1.9710 O   0  0  0  0  0  0  0  0  0  0  0  0
    0.1540   -1.9550    2.7700 H   0  0  0  0  0  0  0  0  0  0  0  0
  1  6  1  0  0  0  0
  1  8  1  0  0  0  0
  2  1  2  0  0  0  0
  3  4  2  0  0  0  0
  3  2  1  0  0  0  0
  4  5  1  0  0  0  0
  5 17  1  0  0  0  0
  5  6  2  0  0  0  0
  8  7  1  0  0  0  0
  9  4  1  0  0  0  0
 10  9  2  0  0  0  0
 11 12  1  0  0  0  0
 11  9  1  0  0  0  0
 13 12  2  0  0  0  0
 14 13  1  0  0  0  0
 15 14  2  0  0  0  0
 15 16  1  0  0  0  0
 16 11  2  0  0  0  0
 17 18  1  0  0  0  0
M  END
>  <MODEL>
5

>  <REMARK>
 VINA RESULT:      -3.0      3.193      5.596
  Name = ox1_orig_f12_ligand
  5 active torsions:
  status: ('A' for Active; 'I' for Inactive)
    1  A    between atoms: C_1  and  O_2
    2  A    between atoms: O_2  and  C_3
    3  A    between atoms: C_6  and  C_7
    4  A    between atoms: C_7  and  C_9
    5  A    between atoms: C_15  and  O_16
                            x       y       z     vdW  Elec       q    Type
                         _______ _______ _______ _____ _____    ______ ____

>  <TORSDO>
F 4

$$$$
ox1_orig_f12_ligand
 OpenBabel10092621193D

 18 19  0  0  0  0  0  0  0  0999 V2000
   -2.2890    2.3760    2.3590 C   0  0  0  0  0  0  0  0  0  0  0  0
   -2.1980    2.6820    1.0050 C   0  0  0  0  0  3  0  0  0  0  0  0
   -1.7560    1.7210    0.1070 C   0  0  0  0  0  3  0  0  0  0  0  0
   -1.3910    0.4520    0.5490 C   0  0  0  0  0  0  0  0  0  0  0  0
   -1.4910    0.1500    1.9020 C   0  0  0  0  0  0  0  0  0  0  0  0
   -1.9420    1.1100    2.7950 C   0  0  0  0  0  3  0  0  0  0  0  0
   -3.0920    3.0220    4.5320 C   0  0  0  0  0  1  0  0  0  0  0  0
   -2.7280    3.3550    3.2120 O   0  0  0  0  0  0  0  0  0  0  0  0
   -0.9120   -0.6070   -0.4080 C   0  0  0  0  0  0  0  0  0  0  0  0
   -1.6560   -1.5360   -0.6450 O   0  0  0  0  0  0  0  0  0  0  0  0
    0.3980   -0.5470   -1.0950 C   0  0  0  0  0  0  0  0  0  0  0  0
    0.5040   -0.6520   -2.4760 C   0  0  0  0  0  3  0  0  0  0  0  0
    1.7340   -0.6010   -3.0910 C   0  0  0  0  0  3  0  0  0  0  0  0
    2.8840   -0.4440   -2.3350 C   0  0  0  0  0  3  0  0  0  0  0  0
    2.7950   -0.3190   -0.9550 C   0  0  0  0  0  3  0  0  0  0  0  0
    1.5530   -0.3490   -0.3260 C   0  0  0  0  0  3  0  0  0  0  0  0
   -1.1470   -1.0910    2.3250 O   0  0  0  0  0  0  0  0  0  0  0  0
   -1.5630   -1.4690    3.1410 H   0  0  0  0  0  0  0  0  0  0  0  0
  1  6  1  0  0  0  0
  1  8  1  0  0  0  0
  2  1  2  0  0  0  0
  3  4  2  0  0  0  0
  3  2  1  0  0  0  0
  4  5  1  0  0  0  0
  5 17  1  0  0  0  0
  5  6  2  0  0  0  0
  8  7  1  0  0  0  0
  9  4  1  0  0  0  0
 10  9  2  0  0  0  0
 11  9  1  0  0  0  0
 11 16  1  0  0  0  0
 12 11  2  0  0  0  0
 13 12  1  0  0  0  0
 13 14  2  0  0  0  0
 14 15  1  0  0  0  0
 15 16  2  0  0  0  0
 17 18  1  0  0  0  0
M  END
>  <MODEL>
6

>  <REMARK>
 VINA RESULT:      -3.0      3.042      5.408
  Name = ox1_orig_f12_ligand
  5 active torsions:
  status: ('A' for Active; 'I' for Inactive)
    1  A    between atoms: C_1  and  O_2
    2  A    between atoms: O_2  and  C_3
    3  A    between atoms: C_6  and  C_7
    4  A    between atoms: C_7  and  C_9
    5  A    between atoms: C_15  and  O_16
                            x       y       z     vdW  Elec       q    Type
                         _______ _______ _______ _____ _____    ______ ____

>  <TORSDO>
F 4

$$$$
ox1_orig_f12_ligand
 OpenBabel10092621193D

 18 19  0  0  0  0  0  0  0  0999 V2000
   -1.3420    2.3140    3.3290 C   0  0  0  0  0  0  0  0  0  0  0  0
   -0.0880    2.6520    2.8330 C   0  0  0  0  0  3  0  0  0  0  0  0
    0.6620    1.7080    2.1450 C   0  0  0  0  0  3  0  0  0  0  0  0
    0.1740    0.4180    1.9540 C   0  0  0  0  0  0  0  0  0  0  0  0
   -1.0830    0.0890    2.4470 C   0  0  0  0  0  0  0  0  0  0  0  0
   -1.8330    1.0370    3.1250 C   0  0  0  0  0  3  0  0  0  0  0  0
   -3.4370    3.3940    3.8060 C   0  0  0  0  0  1  0  0  0  0  0  0
   -2.0470    3.2750    4.0050 O   0  0  0  0  0  0  0  0  0  0  0  0
    0.9680   -0.6200    1.2080 C   0  0  0  0  0  0  0  0  0  0  0  0
    1.4100   -1.5590    1.8370 O   0  0  0  0  0  0  0  0  0  0  0  0
    1.1990   -0.5690   -0.2550 C   0  0  0  0  0  0  0  0  0  0  0  0
    2.4580   -0.3220   -0.7870 C   0  0  0  0  0  3  0  0  0  0  0  0
    2.6460   -0.2710   -2.1490 C   0  0  0  0  0  3  0  0  0  0  0  0
    1.5750   -0.4660   -3.0070 C   0  0  0  0  0  3  0  0  0  0  0  0
    0.3140   -0.7310   -2.4920 C   0  0  0  0  0  3  0  0  0  0  0  0
    0.1180   -0.8050   -1.1150 C   0  0  0  0  0  3  0  0  0  0  0  0
   -1.5590   -1.1660    2.2470 O   0  0  0  0  0  0  0  0  0  0  0  0
   -1.4040   -1.8680    2.9280 H   0  0  0  0  0  0  0  0  0  0  0  0
  1  8  1  0  0  0  0
  2  1  2  0  0  0  0
  3  2  1  0  0  0  0
  4  3  2  0  0  0  0
  4  5  1  0  0  0  0
  5  6  2  0  0  0  0
  6  1  1  0  0  0  0
  7  8  1  0  0  0  0
  9 10  2  0  0  0  0
  9  4  1  0  0  0  0
 11  9  1  0  0  0  0
 12 11  1  0  0  0  0
 13 12  2  0  0  0  0
 14 15  2  0  0  0  0
 14 13  1  0  0  0  0
 15 16  1  0  0  0  0
 16 11  2  0  0  0  0
 17  5  1  0  0  0  0
 17 18  1  0  0  0  0
M  END
>  <MODEL>
7

>  <REMARK>
 VINA RESULT:      -2.9      2.939      5.245
  Name = ox1_orig_f12_ligand
  5 active torsions:
  status: ('A' for Active; 'I' for Inactive)
    1  A    between atoms: C_1  and  O_2
    2  A    between atoms: O_2  and  C_3
    3  A    between atoms: C_6  and  C_7
    4  A    between atoms: C_7  and  C_9
    5  A    between atoms: C_15  and  O_16
                            x       y       z     vdW  Elec       q    Type
                         _______ _______ _______ _____ _____    ______ ____

>  <TORSDO>
F 4

$$$$
ox1_orig_f12_ligand
 OpenBabel10092621193D

 18 19  0  0  0  0  0  0  0  0999 V2000
    2.7870   -7.5200    1.9440 C   0  0  0  0  0  0  0  0  0  0  0  0
    4.0630   -7.3950    1.4070 C   0  0  0  0  0  3  0  0  0  0  0  0
    4.2800   -7.6820    0.0660 C   0  0  0  0  0  3  0  0  0  0  0  0
    3.2320   -8.1050   -0.7470 C   0  0  0  0  0  0  0  0  0  0  0  0
    1.9580   -8.2210   -0.2050 C   0  0  0  0  0  0  0  0  0  0  0  0
    1.7420   -7.9250    1.1320 C   0  0  0  0  0  3  0  0  0  0  0  0
    3.3850   -6.2120    3.8710 C   0  0  0  0  0  1  0  0  0  0  0  0
    2.6170   -7.2310    3.2730 O   0  0  0  0  0  0  0  0  0  0  0  0
    3.4440   -8.4170   -2.2040 C   0  0  0  0  0  0  0  0  0  0  0  0
    3.4750   -9.5840   -2.5370 O   0  0  0  0  0  0  0  0  0  0  0  0
    3.5770   -7.3730   -3.2470 C   0  0  0  0  0  0  0  0  0  0  0  0
    4.6800   -6.5310   -3.3000 C   0  0  0  0  0  3  0  0  0  0  0  0
    4.7770   -5.5620   -4.2730 C   0  0  0  0  0  3  0  0  0  0  0  0
    3.7700   -5.4200   -5.2150 C   0  0  0  0  0  3  0  0  0  0  0  0
    2.6700   -6.2660   -5.1870 C   0  0  0  0  0  3  0  0  0  0  0  0
    2.5720   -7.2610   -4.2180 C   0  0  0  0  0  3  0  0  0  0  0  0
    0.9380   -8.6210   -1.0050 O   0  0  0  0  0  0  0  0  0  0  0  0
    1.1010   -9.2890   -1.7180 H   0  0  0  0  0  0  0  0  0  0  0  0
  1  8  1  0  0  0  0
  2  1  1  0  0  0  0
  3  2  2  0  0  0  0
  4  5  2  0  0  0  0
  4  3  1  0  0  0  0
  5  6  1  0  0  0  0
  6  1  2  0  0  0  0
  8  7  1  0  0  0  0
  9  4  1  0  0  0  0
 10  9  2  0  0  0  0
 11  9  1  0  0  0  0
 12 11  1  0  0  0  0
 13 12  2  0  0  0  0
 14 15  2  0  0  0  0
 14 13  1  0  0  0  0
 15 16  1  0  0  0  0
 16 11  2  0  0  0  0
 17  5  1  0  0  0  0
 18 17  1  0  0  0  0
M  END
>  <MODEL>
8

>  <REMARK>
 VINA RESULT:      -2.9      6.650      8.668
  Name = ox1_orig_f12_ligand
  5 active torsions:
  status: ('A' for Active; 'I' for Inactive)
    1  A    between atoms: C_1  and  O_2
    2  A    between atoms: O_2  and  C_3
    3  A    between atoms: C_6  and  C_7
    4  A    between atoms: C_7  and  C_9
    5  A    between atoms: C_15  and  O_16
                            x       y       z     vdW  Elec       q    Type
                         _______ _______ _______ _____ _____    ______ ____

>  <TORSDO>
F 4

$$$$
ox1_orig_f12_ligand
 OpenBabel10092621193D

 18 19  0  0  0  0  0  0  0  0999 V2000
    3.8820   -3.6660    7.4010 C   0  0  0  0  0  0  0  0  0  0  0  0
    4.5040   -4.8990    7.2310 C   0  0  0  0  0  3  0  0  0  0  0  0
    4.5530   -5.4810    5.9730 C   0  0  0  0  0  3  0  0  0  0  0  0
    3.9750   -4.8480    4.8760 C   0  0  0  0  0  0  0  0  0  0  0  0
    3.3610   -3.6140    5.0500 C   0  0  0  0  0  0  0  0  0  0  0  0
    3.3220   -3.0300    6.3070 C   0  0  0  0  0  3  0  0  0  0  0  0
    4.8400   -3.4880    9.5990 C   0  0  0  0  0  1  0  0  0  0  0  0
    3.8530   -3.1280    8.6600 O   0  0  0  0  0  0  0  0  0  0  0  0
    4.0200   -5.4600    3.5010 C   0  0  0  0  0  0  0  0  0  0  0  0
    2.9720   -5.8170    3.0030 O   0  0  0  0  0  0  0  0  0  0  0  0
    5.2690   -5.6090    2.7190 C   0  0  0  0  0  0  0  0  0  0  0  0
    6.2670   -4.6430    2.7460 C   0  0  0  0  0  3  0  0  0  0  0  0
    7.4160   -4.8000    2.0050 C   0  0  0  0  0  3  0  0  0  0  0  0
    7.5890   -5.9300    1.2210 C   0  0  0  0  0  3  0  0  0  0  0  0
    6.6100   -6.9130    1.1970 C   0  0  0  0  0  3  0  0  0  0  0  0
    5.4530   -6.7720    1.9590 C   0  0  0  0  0  3  0  0  0  0  0  0
    2.8110   -2.9960    3.9760 O   0  0  0  0  0  0  0  0  0  0  0  0
    2.6570   -2.0180    3.9920 H   0  0  0  0  0  0  0  0  0  0  0  0
  1  8  1  0  0  0  0
  2  1  1  0  0  0  0
  3  2  2  0  0  0  0
  4  5  2  0  0  0  0
  4  3  1  0  0  0  0
  5  6  1  0  0  0  0
  6  1  2  0  0  0  0
  8  7  1  0  0  0  0
  9  4  1  0  0  0  0
 10  9  2  0  0  0  0
 11 12  1  0  0  0  0
 11  9  1  0  0  0  0
 13 12  2  0  0  0  0
 14 13  1  0  0  0  0
 15 14  2  0  0  0  0
 15 16  1  0  0  0  0
 16 11  2  0  0  0  0
 17 18  1  0  0  0  0
 17  5  1  0  0  0  0
M  END
>  <MODEL>
9

>  <REMARK>
 VINA RESULT:      -2.9      5.610      7.682
  Name = ox1_orig_f12_ligand
  5 active torsions:
  status: ('A' for Active; 'I' for Inactive)
    1  A    between atoms: C_1  and  O_2
    2  A    between atoms: O_2  and  C_3
    3  A    between atoms: C_6  and  C_7
    4  A    between atoms: C_7  and  C_9
    5  A    between atoms: C_15  and  O_16
                            x       y       z     vdW  Elec       q    Type
                         _______ _______ _______ _____ _____    ______ ____

>  <TORSDO>
F 4

$$$$
