bgox31_5_ligand
     RDKit          3D

 29 30  0  0  0  0  0  0  0  0999 V2000
   -2.9786   11.2607    7.3296 C   0  0  0  0  0  0  0  0  0  0  0  0
   -4.0665   10.9068    6.4291 O   0  0  0  0  0  0  0  0  0  0  0  0
   -3.8822    9.9024    5.4136 C   0  0  0  0  0  0  0  0  0  0  0  0
   -4.8617    9.9271    4.4713 C   0  0  0  0  0  0  0  0  0  0  0  0
   -4.8157    9.0066    3.4026 C   0  0  0  0  0  0  0  0  0  0  0  0
   -3.8037    8.0798    3.2581 C   0  0  0  0  0  0  0  0  0  0  0  0
   -3.8093    7.1826    2.1278 C   0  0  0  0  0  0  0  0  0  0  0  0
   -2.7448    6.6525    1.7853 O   0  0  0  0  0  0  0  0  0  0  0  0
   -5.0565    6.9875    1.3229 C   0  0  0  0  0  0  0  0  0  0  0  0
   -5.1483    7.2014   -0.0415 C   0  0  0  0  0  0  0  0  0  0  0  0
   -6.3685    6.9997   -0.7435 C   0  0  0  0  0  0  0  0  0  0  0  0
   -7.5005    6.5745   -0.1156 C   0  0  0  0  0  0  0  0  0  0  0  0
   -7.4444    6.3270    1.2352 C   0  0  0  0  0  0  0  0  0  0  0  0
   -6.2360    6.5644    1.9316 C   0  0  0  0  0  0  0  0  0  0  0  0
   -2.7939    8.0642    4.2170 C   0  0  0  0  0  0  0  0  0  0  0  0
   -1.7896    7.1598    4.1145 O   0  0  0  0  0  0  0  0  0  0  0  0
   -2.8267    8.9853    5.2996 C   0  0  0  0  0  0  0  0  0  0  0  0
   -2.0556   10.7584    7.0047 H   0  0  0  0  0  0  0  0  0  0  0  0
   -2.8285   12.3503    7.3130 H   0  0  0  0  0  0  0  0  0  0  0  0
   -3.2299   10.9408    8.3517 H   0  0  0  0  0  0  0  0  0  0  0  0
   -5.6817   10.6570    4.5412 H   0  0  0  0  0  0  0  0  0  0  0  0
   -5.6206    9.0288    2.6531 H   0  0  0  0  0  0  0  0  0  0  0  0
   -4.2580    7.5345   -0.5949 H   0  0  0  0  0  0  0  0  0  0  0  0
   -6.3994    7.1929   -1.8261 H   0  0  0  0  0  0  0  0  0  0  0  0
   -8.4363    6.4327   -0.6760 H   0  0  0  0  0  0  0  0  0  0  0  0
   -8.3289    5.9486    1.7687 H   0  0  0  0  0  0  0  0  0  0  0  0
   -6.2273    6.4054    3.0200 H   0  0  0  0  0  0  0  0  0  0  0  0
   -1.0681    7.1423    4.7921 H   0  0  0  0  0  0  0  0  0  0  0  0
   -2.0223    8.9790    6.0499 H   0  0  0  0  0  0  0  0  0  0  0  0
  2  1  1  0
  3  2  1  0
  4  3  1  0
  5  4  2  0
  6  5  1  0
  7  6  1  0
  8  7  2  0
  9  7  1  0
 10  9  2  0
 11 10  1  0
 12 11  2  0
 13 12  1  0
 14 13  2  0
 14  9  1  0
 15  6  2  0
 16 15  1  0
 17 15  1  0
 17  3  2  0
  1 18  1  0
  1 19  1  0
  1 20  1  0
  4 21  1  0
  5 22  1  0
 10 23  1  0
 11 24  1  0
 12 25  1  0
 13 26  1  0
 14 27  1  0
 16 28  1  0
 17 29  1  0
M  END
$$$$
