ox1_orig_f12_ligand
     RDKit          3D

 29 30  0  0  0  0  0  0  0  0999 V2000
    3.1901   -7.9441    2.8467 C   0  0  0  0  0  0  0  0  0  0  0  0
    3.5766   -6.6232    3.1492 O   0  0  0  0  0  0  0  0  0  0  0  0
    2.7364   -5.8145    3.8669 C   0  0  0  0  0  0  0  0  0  0  0  0
    3.1851   -4.5423    4.2058 C   0  0  0  0  0  0  0  0  0  0  0  0
    2.3643   -3.6893    4.9301 C   0  0  0  0  0  0  0  0  0  0  0  0
    1.0871   -4.0897    5.3130 C   0  0  0  0  0  0  0  0  0  0  0  0
    0.1807   -3.1827    6.1018 C   0  0  0  0  0  0  0  0  0  0  0  0
   -0.8661   -3.6408    6.5105 O   0  0  0  0  0  0  0  0  0  0  0  0
    0.5245   -1.7804    6.4313 C   0  0  0  0  0  0  0  0  0  0  0  0
    1.0799   -0.9241    5.4891 C   0  0  0  0  0  0  0  0  0  0  0  0
    1.3978    0.3734    5.8210 C   0  0  0  0  0  0  0  0  0  0  0  0
    1.1636    0.8402    7.1048 C   0  0  0  0  0  0  0  0  0  0  0  0
    0.5920    0.0030    8.0532 C   0  0  0  0  0  0  0  0  0  0  0  0
    0.2492   -1.3051    7.7210 C   0  0  0  0  0  0  0  0  0  0  0  0
    0.6469   -5.3653    4.9767 C   0  0  0  0  0  0  0  0  0  0  0  0
   -0.5933   -5.7554    5.3643 O   0  0  0  0  0  0  0  0  0  0  0  0
    1.4728   -6.2178    4.2620 C   0  0  0  0  0  0  0  0  0  0  0  0
    2.3459   -7.9267    2.1417 H   0  0  0  0  0  0  0  0  0  0  0  0
    4.0369   -8.4788    2.3915 H   0  0  0  0  0  0  0  0  0  0  0  0
    2.8858   -8.4578    3.7705 H   0  0  0  0  0  0  0  0  0  0  0  0
    4.1892   -4.2129    3.9003 H   0  0  0  0  0  0  0  0  0  0  0  0
    2.7264   -2.6873    5.2042 H   0  0  0  0  0  0  0  0  0  0  0  0
    1.2678   -1.2865    4.4676 H   0  0  0  0  0  0  0  0  0  0  0  0
    1.8384    1.0411    5.0661 H   0  0  0  0  0  0  0  0  0  0  0  0
    1.4307    1.8733    7.3720 H   0  0  0  0  0  0  0  0  0  0  0  0
    0.4088    0.3749    9.0720 H   0  0  0  0  0  0  0  0  0  0  0  0
   -0.2327   -1.9588    8.4630 H   0  0  0  0  0  0  0  0  0  0  0  0
   -0.9224   -6.6601    5.1333 H   0  0  0  0  0  0  0  0  0  0  0  0
    1.1198   -7.2276    4.0055 H   0  0  0  0  0  0  0  0  0  0  0  0
  2  1  1  0
  3  2  1  0
  4  3  1  0
  5  4  2  0
  6  5  1  0
  7  6  1  0
  8  7  2  0
  9  7  1  0
 10  9  2  0
 11 10  1  0
 12 11  2  0
 13 12  1  0
 14 13  2  0
 14  9  1  0
 15  6  2  0
 16 15  1  0
 17 15  1  0
 17  3  2  0
  1 18  1  0
  1 19  1  0
  1 20  1  0
  4 21  1  0
  5 22  1  0
 10 23  1  0
 11 24  1  0
 12 25  1  0
 13 26  1  0
 14 27  1  0
 16 28  1  0
 17 29  1  0
M  END
$$$$
