ox2_shuffle_ligand
     RDKit          3D

 29 30  0  0  0  0  0  0  0  0999 V2000
    7.6583    9.5860   -3.4409 C   0  0  0  0  0  0  0  0  0  0  0  0
    6.3790    9.9364   -3.9030 O   0  0  0  0  0  0  0  0  0  0  0  0
    5.2734    9.2682   -3.4402 C   0  0  0  0  0  0  0  0  0  0  0  0
    4.0564    9.9291   -3.5009 C   0  0  0  0  0  0  0  0  0  0  0  0
    2.9054    9.3204   -3.0482 C   0  0  0  0  0  0  0  0  0  0  0  0
    2.9510    8.0321   -2.5312 C   0  0  0  0  0  0  0  0  0  0  0  0
    1.6956    7.3629   -2.0370 C   0  0  0  0  0  0  0  0  0  0  0  0
    1.7577    6.2507   -1.5641 O   0  0  0  0  0  0  0  0  0  0  0  0
    0.3923    8.0511   -2.1466 C   0  0  0  0  0  0  0  0  0  0  0  0
    0.1012    9.1471   -1.3428 C   0  0  0  0  0  0  0  0  0  0  0  0
   -1.1323    9.7722   -1.4494 C   0  0  0  0  0  0  0  0  0  0  0  0
   -2.0727    9.3088   -2.3669 C   0  0  0  0  0  0  0  0  0  0  0  0
   -1.7881    8.2042   -3.1603 C   0  0  0  0  0  0  0  0  0  0  0  0
   -0.5540    7.5610   -3.0431 C   0  0  0  0  0  0  0  0  0  0  0  0
    4.1782    7.3550   -2.4762 C   0  0  0  0  0  0  0  0  0  0  0  0
    4.2309    6.0897   -1.9742 O   0  0  0  0  0  0  0  0  0  0  0  0
    5.3300    7.9850   -2.9303 C   0  0  0  0  0  0  0  0  0  0  0  0
    8.3128   10.4697   -3.4687 H   0  0  0  0  0  0  0  0  0  0  0  0
    7.5862    9.2155   -2.4077 H   0  0  0  0  0  0  0  0  0  0  0  0
    8.0776    8.7987   -4.0843 H   0  0  0  0  0  0  0  0  0  0  0  0
    4.0086   10.9475   -3.9139 H   0  0  0  0  0  0  0  0  0  0  0  0
    1.9464    9.8573   -3.0966 H   0  0  0  0  0  0  0  0  0  0  0  0
    0.8470    9.5177   -0.6241 H   0  0  0  0  0  0  0  0  0  0  0  0
   -1.3683   10.6348   -0.8089 H   0  0  0  0  0  0  0  0  0  0  0  0
   -3.0427    9.8184   -2.4633 H   0  0  0  0  0  0  0  0  0  0  0  0
   -2.5341    7.8366   -3.8802 H   0  0  0  0  0  0  0  0  0  0  0  0
   -0.3310    6.6741   -3.6543 H   0  0  0  0  0  0  0  0  0  0  0  0
    5.0953    5.6088   -1.9338 H   0  0  0  0  0  0  0  0  0  0  0  0
    6.2947    7.4584   -2.8836 H   0  0  0  0  0  0  0  0  0  0  0  0
  2  1  1  0
  3  2  1  0
  4  3  1  0
  5  4  2  0
  6  5  1  0
  7  6  1  0
  8  7  2  0
  9  7  1  0
 10  9  2  0
 11 10  1  0
 12 11  2  0
 13 12  1  0
 14 13  2  0
 14  9  1  0
 15  6  2  0
 16 15  1  0
 17  3  2  0
 17 15  1  0
  1 18  1  0
  1 19  1  0
  1 20  1  0
  4 21  1  0
  5 22  1  0
 10 23  1  0
 11 24  1  0
 12 25  1  0
 13 26  1  0
 14 27  1  0
 16 28  1  0
 17 29  1  0
M  END
$$$$
