ox2_shuffle_esm0_ligand
     RDKit          3D

 29 30  0  0  0  0  0  0  0  0999 V2000
   -1.3171    2.9552    6.4816 C   0  0  0  0  0  0  0  0  0  0  0  0
   -0.2944    2.4695    5.6073 O   0  0  0  0  0  0  0  0  0  0  0  0
   -0.0721    3.0469    4.4047 C   0  0  0  0  0  0  0  0  0  0  0  0
   -1.0319    3.8233    3.7670 C   0  0  0  0  0  0  0  0  0  0  0  0
   -0.7604    4.3672    2.5365 C   0  0  0  0  0  0  0  0  0  0  0  0
    0.4497    4.1504    1.9188 C   0  0  0  0  0  0  0  0  0  0  0  0
    0.7822    4.7029    0.5782 C   0  0  0  0  0  0  0  0  0  0  0  0
    1.9466    4.8989    0.3383 O   0  0  0  0  0  0  0  0  0  0  0  0
   -0.1907    4.9665   -0.5006 C   0  0  0  0  0  0  0  0  0  0  0  0
    0.2830    5.3652   -1.7500 C   0  0  0  0  0  0  0  0  0  0  0  0
   -0.5874    5.5990   -2.7900 C   0  0  0  0  0  0  0  0  0  0  0  0
   -1.9476    5.4473   -2.6123 C   0  0  0  0  0  0  0  0  0  0  0  0
   -2.4250    5.0413   -1.3816 C   0  0  0  0  0  0  0  0  0  0  0  0
   -1.5445    4.7965   -0.3431 C   0  0  0  0  0  0  0  0  0  0  0  0
    1.4152    3.3917    2.5665 C   0  0  0  0  0  0  0  0  0  0  0  0
    2.6178    3.2064    1.9584 O   0  0  0  0  0  0  0  0  0  0  0  0
    1.1431    2.8365    3.8022 C   0  0  0  0  0  0  0  0  0  0  0  0
   -1.8315    3.8044    6.0081 H   0  0  0  0  0  0  0  0  0  0  0  0
   -2.0418    2.1517    6.6800 H   0  0  0  0  0  0  0  0  0  0  0  0
   -0.8644    3.2827    7.4291 H   0  0  0  0  0  0  0  0  0  0  0  0
   -2.0057    4.0013    4.2466 H   0  0  0  0  0  0  0  0  0  0  0  0
   -1.5210    4.9852    2.0371 H   0  0  0  0  0  0  0  0  0  0  0  0
    1.3642    5.4944   -1.9059 H   0  0  0  0  0  0  0  0  0  0  0  0
   -0.1961    5.9091   -3.7702 H   0  0  0  0  0  0  0  0  0  0  0  0
   -2.6431    5.6473   -3.4408 H   0  0  0  0  0  0  0  0  0  0  0  0
   -3.5064    4.9124   -1.2270 H   0  0  0  0  0  0  0  0  0  0  0  0
   -1.9362    4.4591    0.6277 H   0  0  0  0  0  0  0  0  0  0  0  0
    3.3198    2.6686    2.4035 H   0  0  0  0  0  0  0  0  0  0  0  0
    1.9045    2.2226    4.3058 H   0  0  0  0  0  0  0  0  0  0  0  0
  2  1  1  0
  3  2  1  0
  4  3  1  0
  5  4  2  0
  6  5  1  0
  7  6  1  0
  8  7  2  0
  9  7  1  0
 10  9  2  0
 11 10  1  0
 12 11  2  0
 13 12  1  0
 14 13  2  0
 14  9  1  0
 15  6  2  0
 16 15  1  0
 17 15  1  0
 17  3  2  0
  1 18  1  0
  1 19  1  0
  1 20  1  0
  4 21  1  0
  5 22  1  0
 10 23  1  0
 11 24  1  0
 12 25  1  0
 13 26  1  0
 14 27  1  0
 16 28  1  0
 17 29  1  0
M  END
$$$$
