ox2_orig_f8_ligand
     RDKit          3D

 29 30  0  0  0  0  0  0  0  0999 V2000
    7.1824    1.0709    0.1607 C   0  0  0  0  0  0  0  0  0  0  0  0
    7.2755    0.2254   -0.9486 O   0  0  0  0  0  0  0  0  0  0  0  0
    6.6459   -0.9801   -0.9353 C   0  0  0  0  0  0  0  0  0  0  0  0
    6.7631   -1.7624   -2.0653 C   0  0  0  0  0  0  0  0  0  0  0  0
    6.1563   -2.9958   -2.1243 C   0  0  0  0  0  0  0  0  0  0  0  0
    5.4391   -3.4607   -1.0487 C   0  0  0  0  0  0  0  0  0  0  0  0
    4.8002   -4.7779   -1.1385 C   0  0  0  0  0  0  0  0  0  0  0  0
    3.7550   -4.8403   -0.7732 O   0  0  0  0  0  0  0  0  0  0  0  0
    5.2798   -5.9798   -1.7737 C   0  0  0  0  0  0  0  0  0  0  0  0
    6.6078   -6.3015   -1.7278 C   0  0  0  0  0  0  0  0  0  0  0  0
    7.0655   -7.4549   -2.3252 C   0  0  0  0  0  0  0  0  0  0  0  0
    6.1946   -8.2866   -2.9880 C   0  0  0  0  0  0  0  0  0  0  0  0
    4.8514   -7.9773   -3.0190 C   0  0  0  0  0  0  0  0  0  0  0  0
    4.3821   -6.8270   -2.4021 C   0  0  0  0  0  0  0  0  0  0  0  0
    5.3013   -2.6711    0.0907 C   0  0  0  0  0  0  0  0  0  0  0  0
    4.5761   -3.1140    1.1304 O   0  0  0  0  0  0  0  0  0  0  0  0
    5.9103   -1.4374    0.1362 C   0  0  0  0  0  0  0  0  0  0  0  0
    7.2705    2.1172   -0.1673 H   0  0  0  0  0  0  0  0  0  0  0  0
    6.2109    0.9221    0.6546 H   0  0  0  0  0  0  0  0  0  0  0  0
    7.9925    0.8388    0.8677 H   0  0  0  0  0  0  0  0  0  0  0  0
    7.3454   -1.3980   -2.9244 H   0  0  0  0  0  0  0  0  0  0  0  0
    6.2454   -3.6096   -3.0328 H   0  0  0  0  0  0  0  0  0  0  0  0
    7.3144   -5.6356   -1.2110 H   0  0  0  0  0  0  0  0  0  0  0  0
    8.1337   -7.7120   -2.2716 H   0  0  0  0  0  0  0  0  0  0  0  0
    6.5664   -9.1921   -3.4900 H   0  0  0  0  0  0  0  0  0  0  0  0
    4.1479   -8.6464   -3.5359 H   0  0  0  0  0  0  0  0  0  0  0  0
    3.3080   -6.5901   -2.4117 H   0  0  0  0  0  0  0  0  0  0  0  0
    4.4780   -2.5530    1.9402 H   0  0  0  0  0  0  0  0  0  0  0  0
    5.8089   -0.8116    1.0353 H   0  0  0  0  0  0  0  0  0  0  0  0
  2  1  1  0
  3  2  1  0
  4  3  1  0
  5  4  2  0
  6  5  1  0
  7  6  1  0
  8  7  2  0
  9  7  1  0
 10  9  2  0
 11 10  1  0
 12 11  2  0
 13 12  1  0
 14 13  2  0
 14  9  1  0
 15  6  2  0
 16 15  1  0
 17 15  1  0
 17  3  2  0
  1 18  1  0
  1 19  1  0
  1 20  1  0
  4 21  1  0
  5 22  1  0
 10 23  1  0
 11 24  1  0
 12 25  1  0
 13 26  1  0
 14 27  1  0
 16 28  1  0
 17 29  1  0
M  END
$$$$
