bgox31_3_dockpose3
     RDKit          3D

 17 18  0  0  0  0  0  0  0  0999 V2000
    1.9380   -0.9770   -9.4580 C   0  0  0  0  0  0  0  0  0  0  0  0
    0.6690   -0.3910   -9.5280 O   0  0  0  0  0  0  0  0  0  0  0  0
    0.0360    0.0440   -8.3490 C   0  0  0  0  0  0  0  0  0  0  0  0
   -1.2790    0.4260   -8.3940 C   0  0  0  0  0  0  0  0  0  0  0  0
   -1.9220    0.8610   -7.2420 C   0  0  0  0  0  0  0  0  0  0  0  0
   -1.2650    0.9720   -6.0470 C   0  0  0  0  0  0  0  0  0  0  0  0
   -1.9570    1.4160   -4.7920 C   0  0  0  0  0  0  0  0  0  0  0  0
   -2.4410    0.5780   -4.0440 O   0  0  0  0  0  0  0  0  0  0  0  0
   -2.0970    2.8670   -4.4170 C   0  0  0  0  0  0  0  0  0  0  0  0
   -2.9520    3.2190   -3.4050 C   0  0  0  0  0  0  0  0  0  0  0  0
   -3.0870    4.5500   -3.0980 C   0  0  0  0  0  0  0  0  0  0  0  0
   -2.2890    5.4660   -3.7020 C   0  0  0  0  0  0  0  0  0  0  0  0
   -1.3430    5.1150   -4.6920 C   0  0  0  0  0  0  0  0  0  0  0  0
   -1.3020    3.7790   -5.0510 C   0  0  0  0  0  0  0  0  0  0  0  0
    0.0910    0.5970   -6.0190 C   0  0  0  0  0  0  0  0  0  0  0  0
    0.7000    0.6510   -4.7670 O   0  0  0  0  0  0  0  0  0  0  0  0
    0.7260    0.1350   -7.1180 C   0  0  0  0  0  0  0  0  0  0  0  0
  2  1  1  0
  3  2  1  0
  4  3  1  0
  5  4  2  0
  6  5  1  0
  7  6  1  0
  8  7  2  0
  9  7  1  0
 10  9  2  0
 11 10  1  0
 12 11  2  0
 13 12  1  0
 14 13  2  0
 14  9  1  0
 15  6  2  0
 16 15  1  0
 17 15  1  0
 17  3  2  0
M  END
