bgox31_4_ligand
     RDKit          3D

 29 30  0  0  0  0  0  0  0  0999 V2000
    1.2219    4.1859  -10.3832 C   0  0  0  0  0  0  0  0  0  0  0  0
    0.0161    3.8858   -9.6306 O   0  0  0  0  0  0  0  0  0  0  0  0
   -0.5998    4.9665   -9.0510 C   0  0  0  0  0  0  0  0  0  0  0  0
   -1.6494    4.7468   -8.2011 C   0  0  0  0  0  0  0  0  0  0  0  0
   -2.3538    5.8467   -7.5911 C   0  0  0  0  0  0  0  0  0  0  0  0
   -1.8743    7.1360   -7.8633 C   0  0  0  0  0  0  0  0  0  0  0  0
   -2.5799    8.2499   -7.2064 C   0  0  0  0  0  0  0  0  0  0  0  0
   -3.7957    8.4316   -7.5466 O   0  0  0  0  0  0  0  0  0  0  0  0
   -2.0716    8.9844   -6.0453 C   0  0  0  0  0  0  0  0  0  0  0  0
   -2.9712    9.8390   -5.3942 C   0  0  0  0  0  0  0  0  0  0  0  0
   -2.5052   10.6364   -4.3257 C   0  0  0  0  0  0  0  0  0  0  0  0
   -1.1830   10.6363   -4.0118 C   0  0  0  0  0  0  0  0  0  0  0  0
   -0.2644    9.8472   -4.6827 C   0  0  0  0  0  0  0  0  0  0  0  0
   -0.6959    9.0215   -5.7404 C   0  0  0  0  0  0  0  0  0  0  0  0
   -0.8196    7.3323   -8.7456 C   0  0  0  0  0  0  0  0  0  0  0  0
   -0.4060    8.6527   -8.9925 O   0  0  0  0  0  0  0  0  0  0  0  0
   -0.1490    6.2535   -9.3524 C   0  0  0  0  0  0  0  0  0  0  0  0
    1.7885    3.2584  -10.5529 H   0  0  0  0  0  0  0  0  0  0  0  0
    0.9485    4.6309  -11.3512 H   0  0  0  0  0  0  0  0  0  0  0  0
    1.8415    4.8953   -9.8152 H   0  0  0  0  0  0  0  0  0  0  0  0
   -1.9607    3.7151   -7.9801 H   0  0  0  0  0  0  0  0  0  0  0  0
   -3.2267    5.6823   -6.9422 H   0  0  0  0  0  0  0  0  0  0  0  0
   -4.0237    9.8881   -5.7104 H   0  0  0  0  0  0  0  0  0  0  0  0
   -3.2095   11.2548   -3.7500 H   0  0  0  0  0  0  0  0  0  0  0  0
   -0.8307   11.2856   -3.1968 H   0  0  0  0  0  0  0  0  0  0  0  0
    0.7963    9.8644   -4.3918 H   0  0  0  0  0  0  0  0  0  0  0  0
    0.0242    8.4200   -6.3145 H   0  0  0  0  0  0  0  0  0  0  0  0
    0.3427    8.8286   -9.6160 H   0  0  0  0  0  0  0  0  0  0  0  0
    0.6964    6.4177  -10.0366 H   0  0  0  0  0  0  0  0  0  0  0  0
  2  1  1  0
  3  2  1  0
  4  3  1  0
  5  4  2  0
  6  5  1  0
  7  6  1  0
  8  7  2  0
  9  7  1  0
 10  9  2  0
 11 10  1  0
 12 11  2  0
 13 12  1  0
 14 13  2  0
 14  9  1  0
 15  6  2  0
 16 15  1  0
 17 15  1  0
 17  3  2  0
  1 18  1  0
  1 19  1  0
  1 20  1  0
  4 21  1  0
  5 22  1  0
 10 23  1  0
 11 24  1  0
 12 25  1  0
 13 26  1  0
 14 27  1  0
 16 28  1  0
 17 29  1  0
M  END
$$$$
