bgox31_3_ligand
     RDKit          3D

 29 30  0  0  0  0  0  0  0  0999 V2000
    5.0333   -2.0799   -9.7852 C   0  0  0  0  0  0  0  0  0  0  0  0
    4.3831   -1.1365   -8.9819 O   0  0  0  0  0  0  0  0  0  0  0  0
    3.0454   -1.3488   -8.6014 C   0  0  0  0  0  0  0  0  0  0  0  0
    2.3391   -0.3233   -8.0303 C   0  0  0  0  0  0  0  0  0  0  0  0
    1.0168   -0.5123   -7.6448 C   0  0  0  0  0  0  0  0  0  0  0  0
    0.3953   -1.7246   -7.7717 C   0  0  0  0  0  0  0  0  0  0  0  0
   -1.0391   -1.9320   -7.3828 C   0  0  0  0  0  0  0  0  0  0  0  0
   -1.7652   -2.6048   -8.1005 O   0  0  0  0  0  0  0  0  0  0  0  0
   -1.6348   -1.3260   -6.1400 C   0  0  0  0  0  0  0  0  0  0  0  0
   -2.8906   -0.7802   -6.1946 C   0  0  0  0  0  0  0  0  0  0  0  0
   -3.4036   -0.2069   -5.0585 C   0  0  0  0  0  0  0  0  0  0  0  0
   -2.7246   -0.3052   -3.8878 C   0  0  0  0  0  0  0  0  0  0  0  0
   -1.4628   -0.9351   -3.7914 C   0  0  0  0  0  0  0  0  0  0  0  0
   -0.9277   -1.4137   -4.9747 C   0  0  0  0  0  0  0  0  0  0  0  0
    1.1392   -2.7754   -8.3398 C   0  0  0  0  0  0  0  0  0  0  0  0
    0.4440   -3.9681   -8.5214 O   0  0  0  0  0  0  0  0  0  0  0  0
    2.4127   -2.6038   -8.7568 C   0  0  0  0  0  0  0  0  0  0  0  0
    4.3191   -2.8612  -10.0845 H   0  0  0  0  0  0  0  0  0  0  0  0
    5.4323   -1.5847  -10.6826 H   0  0  0  0  0  0  0  0  0  0  0  0
    5.8596   -2.5356   -9.2199 H   0  0  0  0  0  0  0  0  0  0  0  0
    2.8202    0.6539   -7.8761 H   0  0  0  0  0  0  0  0  0  0  0  0
    0.4550    0.3358   -7.2265 H   0  0  0  0  0  0  0  0  0  0  0  0
   -3.4736   -0.8011   -7.1271 H   0  0  0  0  0  0  0  0  0  0  0  0
   -4.3624    0.3309   -5.0966 H   0  0  0  0  0  0  0  0  0  0  0  0
   -3.1734    0.1217   -2.9787 H   0  0  0  0  0  0  0  0  0  0  0  0
   -0.9365   -1.0389   -2.8310 H   0  0  0  0  0  0  0  0  0  0  0  0
    0.0742   -1.8678   -4.9767 H   0  0  0  0  0  0  0  0  0  0  0  0
    0.9013   -4.7525   -8.9160 H   0  0  0  0  0  0  0  0  0  0  0  0
    2.9578   -3.4409   -9.2174 H   0  0  0  0  0  0  0  0  0  0  0  0
  2  1  1  0
  3  2  1  0
  4  3  1  0
  5  4  2  0
  6  5  1  0
  7  6  1  0
  8  7  2  0
  9  7  1  0
 10  9  2  0
 11 10  1  0
 12 11  2  0
 13 12  1  0
 14 13  2  0
 14  9  1  0
 15  6  2  0
 16 15  1  0
 17 15  1  0
 17  3  2  0
  1 18  1  0
  1 19  1  0
  1 20  1  0
  4 21  1  0
  5 22  1  0
 10 23  1  0
 11 24  1  0
 12 25  1  0
 13 26  1  0
 14 27  1  0
 16 28  1  0
 17 29  1  0
M  END
$$$$
