ox2_shuffle_esm0_ligand
     RDKit          3D

 29 30  0  0  0  0  0  0  0  0999 V2000
    5.0553   -7.7349    5.4373 C   0  0  0  0  0  0  0  0  0  0  0  0
    4.7317   -6.4419    4.9178 O   0  0  0  0  0  0  0  0  0  0  0  0
    3.5640   -5.8360    5.2315 C   0  0  0  0  0  0  0  0  0  0  0  0
    2.4626   -6.5449    5.6950 C   0  0  0  0  0  0  0  0  0  0  0  0
    1.2949   -5.8813    5.9772 C   0  0  0  0  0  0  0  0  0  0  0  0
    1.1948   -4.5203    5.8022 C   0  0  0  0  0  0  0  0  0  0  0  0
   -0.0546   -3.7609    6.0763 C   0  0  0  0  0  0  0  0  0  0  0  0
    0.0631   -2.6004    6.3784 O   0  0  0  0  0  0  0  0  0  0  0  0
   -1.4243   -4.2961    5.9436 C   0  0  0  0  0  0  0  0  0  0  0  0
   -2.5035   -3.4292    6.1109 C   0  0  0  0  0  0  0  0  0  0  0  0
   -3.7961   -3.8810    5.9731 C   0  0  0  0  0  0  0  0  0  0  0  0
   -4.0469   -5.2042    5.6713 C   0  0  0  0  0  0  0  0  0  0  0  0
   -2.9837   -6.0674    5.4922 C   0  0  0  0  0  0  0  0  0  0  0  0
   -1.6864   -5.6049    5.6205 C   0  0  0  0  0  0  0  0  0  0  0  0
    2.3025   -3.8106    5.3587 C   0  0  0  0  0  0  0  0  0  0  0  0
    2.2003   -2.4618    5.2152 O   0  0  0  0  0  0  0  0  0  0  0  0
    3.4777   -4.4760    5.0668 C   0  0  0  0  0  0  0  0  0  0  0  0
    4.2313   -8.0915    6.0726 H   0  0  0  0  0  0  0  0  0  0  0  0
    5.2066   -8.4373    4.6043 H   0  0  0  0  0  0  0  0  0  0  0  0
    5.9769   -7.6700    6.0341 H   0  0  0  0  0  0  0  0  0  0  0  0
    2.5264   -7.6342    5.8353 H   0  0  0  0  0  0  0  0  0  0  0  0
    0.4267   -6.4454    6.3486 H   0  0  0  0  0  0  0  0  0  0  0  0
   -2.3197   -2.3726    6.3557 H   0  0  0  0  0  0  0  0  0  0  0  0
   -4.6356   -3.1824    6.1046 H   0  0  0  0  0  0  0  0  0  0  0  0
   -5.0809   -5.5669    5.5744 H   0  0  0  0  0  0  0  0  0  0  0  0
   -3.1689   -7.1237    5.2473 H   0  0  0  0  0  0  0  0  0  0  0  0
   -0.8482   -6.2991    5.4605 H   0  0  0  0  0  0  0  0  0  0  0  0
    2.9786   -1.9371    4.9002 H   0  0  0  0  0  0  0  0  0  0  0  0
    4.3488   -3.9129    4.7005 H   0  0  0  0  0  0  0  0  0  0  0  0
  2  1  1  0
  3  2  1  0
  4  3  1  0
  5  4  2  0
  6  5  1  0
  7  6  1  0
  8  7  2  0
  9  7  1  0
 10  9  2  0
 11 10  1  0
 12 11  2  0
 13 12  1  0
 14 13  2  0
 14  9  1  0
 15  6  2  0
 16 15  1  0
 17 15  1  0
 17  3  2  0
  1 18  1  0
  1 19  1  0
  1 20  1  0
  4 21  1  0
  5 22  1  0
 10 23  1  0
 11 24  1  0
 12 25  1  0
 13 26  1  0
 14 27  1  0
 16 28  1  0
 17 29  1  0
M  END
$$$$
