ox2_shuffle_ligand
     RDKit          3D

 29 30  0  0  0  0  0  0  0  0999 V2000
    9.2164    3.1418   -4.2208 C   0  0  0  0  0  0  0  0  0  0  0  0
    8.5644    4.3839   -4.1514 O   0  0  0  0  0  0  0  0  0  0  0  0
    7.4953    4.5537   -3.3080 C   0  0  0  0  0  0  0  0  0  0  0  0
    7.2122    5.8440   -2.8880 C   0  0  0  0  0  0  0  0  0  0  0  0
    6.1565    6.0876   -2.0357 C   0  0  0  0  0  0  0  0  0  0  0  0
    5.3582    5.0410   -1.5925 C   0  0  0  0  0  0  0  0  0  0  0  0
    4.2028    5.3028   -0.6626 C   0  0  0  0  0  0  0  0  0  0  0  0
    3.5343    4.3761   -0.2642 O   0  0  0  0  0  0  0  0  0  0  0  0
    3.8741    6.6847   -0.2542 C   0  0  0  0  0  0  0  0  0  0  0  0
    4.7056    7.3827    0.6138 C   0  0  0  0  0  0  0  0  0  0  0  0
    4.3744    8.6736    0.9973 C   0  0  0  0  0  0  0  0  0  0  0  0
    3.2165    9.2725    0.5057 C   0  0  0  0  0  0  0  0  0  0  0  0
    2.3771    8.5702   -0.3504 C   0  0  0  0  0  0  0  0  0  0  0  0
    2.6980    7.2635   -0.7246 C   0  0  0  0  0  0  0  0  0  0  0  0
    5.6341    3.7345   -2.0220 C   0  0  0  0  0  0  0  0  0  0  0  0
    4.8535    2.7029   -1.5951 O   0  0  0  0  0  0  0  0  0  0  0  0
    6.7057    3.5051   -2.8755 C   0  0  0  0  0  0  0  0  0  0  0  0
   10.2725    3.2966   -4.4866 H   0  0  0  0  0  0  0  0  0  0  0  0
    9.1538    2.6398   -3.2441 H   0  0  0  0  0  0  0  0  0  0  0  0
    8.7336    2.5165   -4.9861 H   0  0  0  0  0  0  0  0  0  0  0  0
    7.8350    6.6806   -3.2377 H   0  0  0  0  0  0  0  0  0  0  0  0
    5.9454    7.1153   -1.7050 H   0  0  0  0  0  0  0  0  0  0  0  0
    5.6239    6.9124    0.9955 H   0  0  0  0  0  0  0  0  0  0  0  0
    5.0265    9.2253    1.6904 H   0  0  0  0  0  0  0  0  0  0  0  0
    2.9663   10.3035    0.7959 H   0  0  0  0  0  0  0  0  0  0  0  0
    1.4607    9.0430   -0.7331 H   0  0  0  0  0  0  0  0  0  0  0  0
    2.0270    6.6958   -1.3859 H   0  0  0  0  0  0  0  0  0  0  0  0
    5.0452    1.7795   -1.8961 H   0  0  0  0  0  0  0  0  0  0  0  0
    6.9277    2.4809   -3.2099 H   0  0  0  0  0  0  0  0  0  0  0  0
  2  1  1  0
  3  2  1  0
  4  3  1  0
  5  4  2  0
  6  5  1  0
  7  6  1  0
  8  7  2  0
  9  7  1  0
 10  9  2  0
 11 10  1  0
 12 11  2  0
 13 12  1  0
 14 13  2  0
 14  9  1  0
 15  6  2  0
 16 15  1  0
 17  3  2  0
 17 15  1  0
  1 18  1  0
  1 19  1  0
  1 20  1  0
  4 21  1  0
  5 22  1  0
 10 23  1  0
 11 24  1  0
 12 25  1  0
 13 26  1  0
 14 27  1  0
 16 28  1  0
 17 29  1  0
M  END
$$$$
