s2_esm2_control_ligand
     RDKit          3D

 44 44  0  0  0  0  0  0  0  0999 V2000
    7.4532   10.4910    7.9462 C   0  0  0  0  0  0  0  0  0  0  0  0
    6.9708    9.4455    8.9453 C   0  0  0  0  0  0  0  0  0  0  0  0
    5.5855    8.9773    8.6113 C   0  0  0  0  0  0  0  0  0  0  0  0
    5.1245    7.8842    9.5246 C   0  0  0  0  0  0  0  0  0  0  0  0
    3.7088    7.4276    9.2688 C   0  0  2  0  0  0  0  0  0  0  0  0
    3.4105    6.1778   10.0941 C   0  0  0  0  0  0  0  0  0  0  0  0
    2.2404    6.3267   11.0506 C   0  0  0  0  0  0  0  0  0  0  0  0
    3.5505    7.1092    7.8970 O   0  0  0  0  0  0  0  0  0  0  0  0
    2.7269    7.8568    7.1340 C   0  0  0  0  0  0  0  0  0  0  0  0
    2.0973    8.7641    7.6089 O   0  0  0  0  0  0  0  0  0  0  0  0
    2.6810    7.4917    5.6950 C   0  0  0  0  0  0  0  0  0  0  0  0
    1.8980    8.2328    4.8615 C   0  0  0  0  0  0  0  0  0  0  0  0
    1.8030    7.9964    3.4073 C   0  0  0  0  0  0  0  0  0  0  0  0
    0.9384    8.7876    2.6730 C   0  0  0  0  0  0  0  0  0  0  0  0
    0.8197    8.6224    1.3055 C   0  0  0  0  0  0  0  0  0  0  0  0
    1.5587    7.6695    0.6541 C   0  0  0  0  0  0  0  0  0  0  0  0
    1.4081    7.5512   -0.6861 O   0  0  0  0  0  0  0  0  0  0  0  0
    2.2240    6.6419   -1.4134 C   0  0  0  0  0  0  0  0  0  0  0  0
    2.4227    6.8813    1.3805 C   0  0  0  0  0  0  0  0  0  0  0  0
    2.5406    7.0462    2.7549 C   0  0  0  0  0  0  0  0  0  0  0  0
    8.2650   11.0813    8.3963 H   0  0  0  0  0  0  0  0  0  0  0  0
    7.8238    9.9891    7.0402 H   0  0  0  0  0  0  0  0  0  0  0  0
    6.6190   11.1572    7.6811 H   0  0  0  0  0  0  0  0  0  0  0  0
    7.6556    8.5850    8.9237 H   0  0  0  0  0  0  0  0  0  0  0  0
    6.9534    9.9010    9.9464 H   0  0  0  0  0  0  0  0  0  0  0  0
    4.8932    9.8276    8.6981 H   0  0  0  0  0  0  0  0  0  0  0  0
    5.6010    8.5782    7.5863 H   0  0  0  0  0  0  0  0  0  0  0  0
    5.7948    7.0213    9.3975 H   0  0  0  0  0  0  0  0  0  0  0  0
    5.1481    8.2914   10.5462 H   0  0  0  0  0  0  0  0  0  0  0  0
    3.0193    8.2370    9.5508 H   0  0  0  0  0  0  0  0  0  0  0  0
    3.1870    5.3527    9.4017 H   0  0  0  0  0  0  0  0  0  0  0  0
    4.3007    5.9874   10.7116 H   0  0  0  0  0  0  0  0  0  0  0  0
    2.6176    6.5530   12.0589 H   0  0  0  0  0  0  0  0  0  0  0  0
    1.5902    7.1460   10.7099 H   0  0  0  0  0  0  0  0  0  0  0  0
    1.6660    5.3889   11.0762 H   0  0  0  0  0  0  0  0  0  0  0  0
    3.2655    6.6427    5.3111 H   0  0  0  0  0  0  0  0  0  0  0  0
    1.3048    9.0510    5.2957 H   0  0  0  0  0  0  0  0  0  0  0  0
    0.3388    9.5565    3.1822 H   0  0  0  0  0  0  0  0  0  0  0  0
    0.1275    9.2601    0.7365 H   0  0  0  0  0  0  0  0  0  0  0  0
    3.1704    6.4868   -0.8747 H   0  0  0  0  0  0  0  0  0  0  0  0
    1.6993    5.6807   -1.5171 H   0  0  0  0  0  0  0  0  0  0  0  0
    2.4335    7.0547   -2.4113 H   0  0  0  0  0  0  0  0  0  0  0  0
    3.0241    6.1155    0.8688 H   0  0  0  0  0  0  0  0  0  0  0  0
    3.2326    6.4076    3.3235 H   0  0  0  0  0  0  0  0  0  0  0  0
  2  1  1  0
  3  2  1  0
  4  3  1  0
  5  4  1  0
  6  5  1  0
  7  6  1  0
  8  5  1  0
  9  8  1  0
 10  9  2  0
 11  9  1  0
 12 11  2  3
 13 12  1  0
 14 13  1  0
 15 14  2  0
 16 15  1  0
 17 16  1  0
 18 17  1  0
 19 16  2  0
 20 19  1  0
 20 13  2  0
  1 21  1  0
  1 22  1  0
  1 23  1  0
  2 24  1  0
  2 25  1  0
  3 26  1  0
  3 27  1  0
  4 28  1  0
  4 29  1  0
  5 30  1  1
  6 31  1  0
  6 32  1  0
  7 33  1  0
  7 34  1  0
  7 35  1  0
 11 36  1  0
 12 37  1  0
 14 38  1  0
 15 39  1  0
 18 40  1  0
 18 41  1  0
 18 42  1  0
 19 43  1  0
 20 44  1  0
M  END
$$$$
