s2_esm2_control_ligand
 OpenBabel10092621053D

 20 20  0  0  1  0  0  0  0  0999 V2000
   -0.2530    4.0160   -2.9270 C   0  0  0  0  0  0  0  0  0  0  0  0
    0.5910    3.2610   -3.3300 O   0  0  0  0  0  0  0  0  0  0  0  0
    0.0070    5.0710   -1.9140 C   0  0  0  0  0  3  0  0  0  0  0  0
    0.5650    6.2430   -2.3260 C   0  0  0  0  0  3  0  0  0  0  0  0
    0.8310    7.3810   -1.4220 C   0  0  0  0  0  0  0  0  0  0  0  0
   -0.0150    7.5680   -0.3430 C   0  0  0  0  0  3  0  0  0  0  0  0
    0.1950    8.6070    0.5440 C   0  0  0  0  0  3  0  0  0  0  0  0
    1.2460    9.4690    0.3710 C   0  0  0  0  0  0  0  0  0  0  0  0
    2.0920    9.2850   -0.7000 C   0  0  0  0  0  3  0  0  0  0  0  0
    1.8810    8.2430   -1.5940 C   0  0  0  0  0  3  0  0  0  0  0  0
    1.4090   10.4670    1.2710 O   0  0  0  0  0  0  0  0  0  0  0  0
    0.4840   10.6130    2.3410 C   0  0  0  0  0  1  0  0  0  0  0  0
   -1.5150    3.9620   -3.3980 O   0  0  0  0  0  0  0  0  0  0  0  0
   -2.5760    4.4710   -2.6070 C   0  0  1  0  0  3  0  0  0  0  0  0
   -3.2430    5.6130   -3.3710 C   0  0  0  0  0  2  0  0  0  0  0  0
   -3.0690    6.9780   -2.7290 C   0  0  0  0  0  1  0  0  0  0  0  0
   -3.5820    3.3780   -2.3390 C   0  0  0  0  0  2  0  0  0  0  0  0
   -4.9890    3.8690   -2.2020 C   0  0  0  0  0  2  0  0  0  0  0  0
   -5.1440    2.0170   -0.5370 C   0  0  0  0  0  1  0  0  0  0  0  0
   -5.6220    3.4130   -0.9200 C   0  0  0  0  0  2  0  0  0  0  0  0
  1  3  1  0  0  0  0
  2  1  2  0  0  0  0
  4  3  2  0  0  0  0
  4  5  1  0  0  0  0
  5  6  1  0  0  0  0
  6  7  2  0  0  0  0
  8  7  1  0  0  0  0
  8 11  1  0  0  0  0
  9  8  2  0  0  0  0
 10  5  2  0  0  0  0
 10  9  1  0  0  0  0
 11 12  1  0  0  0  0
 13  1  1  0  0  0  0
 13 14  1  0  0  0  0
 14 15  1  6  0  0  0
 14 17  1  0  0  0  0
 15 16  1  0  0  0  0
 17 18  1  0  0  0  0
 18 20  1  0  0  0  0
 20 19  1  0  0  0  0
M  END
>  <MODEL>
1

>  <REMARK>
 VINA RESULT:      -5.2      0.000      0.000
  Name = s2_esm2_control_ligand
  12 active torsions:
  status: ('A' for Active; 'I' for Inactive)
    1  A    between atoms: C_1  and  C_2
    2  A    between atoms: C_2  and  C_3
    3  A    between atoms: C_3  and  C_4
    4  A    between atoms: C_4  and  C_5
    5  A    between atoms: C_5  and  C_6
    6  A    between atoms: C_5  and  O_8
    7  A    between atoms: C_6  and  C_7
    8  A    between atoms: O_8  and  C_9
    9  A    between atoms: C_9  and  C_11
   10  A    between atoms: C_12  and  C_13
   11  A    between atoms: C_16  and  O_17
   12  A    between atoms: O_17  and  C_18
                            x       y       z     vdW  Elec       q    Type
                         _______ _______ _______ _____ _____    ______ ____

>  <TORSDO>
F 9

$$$$
s2_esm2_control_ligand
 OpenBabel10092621053D

 20 20  0  0  1  0  0  0  0  0999 V2000
   -2.4740    4.2130   -3.6210 C   0  0  0  0  0  0  0  0  0  0  0  0
   -2.7340    4.0540   -4.7840 O   0  0  0  0  0  0  0  0  0  0  0  0
   -3.2170    3.5530   -2.5170 C   0  0  0  0  0  3  0  0  0  0  0  0
   -4.4300    4.0590   -2.1570 C   0  0  0  0  0  3  0  0  0  0  0  0
   -5.2820    3.4660   -1.1060 C   0  0  0  0  0  0  0  0  0  0  0  0
   -6.3520    4.2080   -0.6400 C   0  0  0  0  0  3  0  0  0  0  0  0
   -7.1930    3.6970    0.3310 C   0  0  0  0  0  3  0  0  0  0  0  0
   -6.9800    2.4460    0.8480 C   0  0  0  0  0  0  0  0  0  0  0  0
   -5.9170    1.7030    0.3840 C   0  0  0  0  0  3  0  0  0  0  0  0
   -5.0700    2.2170   -0.5900 C   0  0  0  0  0  3  0  0  0  0  0  0
   -7.8350    1.9920    1.7940 O   0  0  0  0  0  0  0  0  0  0  0  0
   -7.7560    0.6420    2.2310 C   0  0  0  0  0  1  0  0  0  0  0  0
   -1.4510    5.0050   -3.2400 O   0  0  0  0  0  0  0  0  0  0  0  0
   -0.4320    4.4760   -2.4090 C   0  0  1  0  0  3  0  0  0  0  0  0
    0.4650    3.5760   -3.2560 C   0  0  0  0  0  2  0  0  0  0  0  0
    1.4810    4.3260   -4.1000 C   0  0  0  0  0  1  0  0  0  0  0  0
    0.3810    5.6030   -1.8200 C   0  0  0  0  0  2  0  0  0  0  0  0
   -0.4430    6.6820   -1.1910 C   0  0  0  0  0  2  0  0  0  0  0  0
   -0.3640    8.3320    0.6800 C   0  0  0  0  0  1  0  0  0  0  0  0
    0.4030    7.6910   -0.4720 C   0  0  0  0  0  2  0  0  0  0  0  0
  1 13  1  0  0  0  0
  1  3  1  0  0  0  0
  2  1  2  0  0  0  0
  3  4  2  0  0  0  0
  4  5  1  0  0  0  0
  5  6  2  0  0  0  0
  5 10  1  0  0  0  0
  6  7  1  0  0  0  0
  7  8  2  0  0  0  0
  8 11  1  0  0  0  0
  9  8  1  0  0  0  0
 10  9  2  0  0  0  0
 11 12  1  0  0  0  0
 13 14  1  0  0  0  0
 14 15  1  6  0  0  0
 14 17  1  0  0  0  0
 16 15  1  0  0  0  0
 17 18  1  0  0  0  0
 18 20  1  0  0  0  0
 20 19  1  0  0  0  0
M  END
>  <MODEL>
2

>  <REMARK>
 VINA RESULT:      -4.9      2.392      7.478
  Name = s2_esm2_control_ligand
  12 active torsions:
  status: ('A' for Active; 'I' for Inactive)
    1  A    between atoms: C_1  and  C_2
    2  A    between atoms: C_2  and  C_3
    3  A    between atoms: C_3  and  C_4
    4  A    between atoms: C_4  and  C_5
    5  A    between atoms: C_5  and  C_6
    6  A    between atoms: C_5  and  O_8
    7  A    between atoms: C_6  and  C_7
    8  A    between atoms: O_8  and  C_9
    9  A    between atoms: C_9  and  C_11
   10  A    between atoms: C_12  and  C_13
   11  A    between atoms: C_16  and  O_17
   12  A    between atoms: O_17  and  C_18
                            x       y       z     vdW  Elec       q    Type
                         _______ _______ _______ _____ _____    ______ ____

>  <TORSDO>
F 9

$$$$
s2_esm2_control_ligand
 OpenBabel10092621053D

 20 20  0  0  1  0  0  0  0  0999 V2000
   -0.2720    4.2430   -2.7290 C   0  0  0  0  0  0  0  0  0  0  0  0
    0.2750    3.4100   -3.4010 O   0  0  0  0  0  0  0  0  0  0  0  0
    0.3660    5.5250   -2.3330 C   0  0  0  0  0  3  0  0  0  0  0  0
   -0.1490    6.2060   -1.2710 C   0  0  0  0  0  3  0  0  0  0  0  0
    0.4230    7.4660   -0.7550 C   0  0  0  0  0  0  0  0  0  0  0  0
   -0.1670    8.0420    0.3560 C   0  0  0  0  0  3  0  0  0  0  0  0
    0.3360    9.2130    0.8920 C   0  0  0  0  0  3  0  0  0  0  0  0
    1.4270    9.8220    0.3320 C   0  0  0  0  0  0  0  0  0  0  0  0
    2.0180    9.2510   -0.7730 C   0  0  0  0  0  3  0  0  0  0  0  0
    1.5130    8.0750   -1.3140 C   0  0  0  0  0  3  0  0  0  0  0  0
    1.8810   10.9650    0.8980 O   0  0  0  0  0  0  0  0  0  0  0  0
    1.8730   11.1070    2.3120 C   0  0  0  0  0  1  0  0  0  0  0  0
   -1.5380    4.0680   -2.3000 O   0  0  0  0  0  0  0  0  0  0  0  0
   -2.5730    3.8660   -3.2480 C   0  0  1  0  0  3  0  0  0  0  0  0
   -3.7160    3.1200   -2.5640 C   0  0  0  0  0  2  0  0  0  0  0  0
   -4.7550    2.5580   -3.5200 C   0  0  0  0  0  1  0  0  0  0  0  0
   -3.0630    5.1990   -3.7580 C   0  0  0  0  0  2  0  0  0  0  0  0
   -3.6690    6.0680   -2.7000 C   0  0  0  0  0  2  0  0  0  0  0  0
   -2.2340    7.6670   -3.9680 C   0  0  0  0  0  1  0  0  0  0  0  0
   -3.2160    7.4940   -2.8140 C   0  0  0  0  0  2  0  0  0  0  0  0
  1  3  1  0  0  0  0
  1 13  1  0  0  0  0
  2  1  2  0  0  0  0
  3  4  2  0  0  0  0
  4  5  1  0  0  0  0
  5  6  1  0  0  0  0
  6  7  2  0  0  0  0
  8  7  1  0  0  0  0
  8 11  1  0  0  0  0
  9  8  2  0  0  0  0
 10  9  1  0  0  0  0
 10  5  2  0  0  0  0
 11 12  1  0  0  0  0
 14 17  1  1  0  0  0
 14 15  1  0  0  0  0
 14 13  1  0  0  0  0
 16 15  1  0  0  0  0
 17 18  1  0  0  0  0
 19 20  1  0  0  0  0
 20 18  1  0  0  0  0
M  END
>  <MODEL>
3

>  <REMARK>
 VINA RESULT:      -4.8      1.114      2.551
  Name = s2_esm2_control_ligand
  12 active torsions:
  status: ('A' for Active; 'I' for Inactive)
    1  A    between atoms: C_1  and  C_2
    2  A    between atoms: C_2  and  C_3
    3  A    between atoms: C_3  and  C_4
    4  A    between atoms: C_4  and  C_5
    5  A    between atoms: C_5  and  C_6
    6  A    between atoms: C_5  and  O_8
    7  A    between atoms: C_6  and  C_7
    8  A    between atoms: O_8  and  C_9
    9  A    between atoms: C_9  and  C_11
   10  A    between atoms: C_12  and  C_13
   11  A    between atoms: C_16  and  O_17
   12  A    between atoms: O_17  and  C_18
                            x       y       z     vdW  Elec       q    Type
                         _______ _______ _______ _____ _____    ______ ____

>  <TORSDO>
F 9

$$$$
s2_esm2_control_ligand
 OpenBabel10092621053D

 20 20  0  0  1  0  0  0  0  0999 V2000
   -2.2590    6.2530   -3.1940 C   0  0  0  0  0  0  0  0  0  0  0  0
   -2.7970    6.9290   -4.0310 O   0  0  0  0  0  0  0  0  0  0  0  0
   -2.8460    5.0030   -2.6500 C   0  0  0  0  0  3  0  0  0  0  0  0
   -4.1500    5.0160   -2.2550 C   0  0  0  0  0  3  0  0  0  0  0  0
   -4.8580    3.8260   -1.7390 C   0  0  0  0  0  0  0  0  0  0  0  0
   -4.4120    2.5790   -2.1380 C   0  0  0  0  0  3  0  0  0  0  0  0
   -5.0260    1.4300   -1.6740 C   0  0  0  0  0  3  0  0  0  0  0  0
   -6.0850    1.5080   -0.8090 C   0  0  0  0  0  0  0  0  0  0  0  0
   -6.5300    2.7480   -0.4070 C   0  0  0  0  0  3  0  0  0  0  0  0
   -5.9160    3.9030   -0.8740 C   0  0  0  0  0  3  0  0  0  0  0  0
   -6.6480    0.3530   -0.3820 O   0  0  0  0  0  0  0  0  0  0  0  0
   -7.0240    0.2090    0.9810 C   0  0  0  0  0  1  0  0  0  0  0  0
   -1.0500    6.5900   -2.7020 O   0  0  0  0  0  0  0  0  0  0  0  0
   -0.2670    5.6070   -2.0460 C   0  0  1  0  0  3  0  0  0  0  0  0
    0.7810    5.0880   -3.0280 C   0  0  0  0  0  2  0  0  0  0  0  0
    0.5780    3.6450   -3.4530 C   0  0  0  0  0  1  0  0  0  0  0  0
    0.4140    6.2170   -0.8440 C   0  0  0  0  0  2  0  0  0  0  0  0
   -0.0880    7.5830   -0.4910 C   0  0  0  0  0  2  0  0  0  0  0  0
    0.9390    9.5910    0.5750 C   0  0  0  0  0  1  0  0  0  0  0  0
    0.9860    8.6240   -0.6030 C   0  0  0  0  0  2  0  0  0  0  0  0
  1 13  1  0  0  0  0
  1  3  1  0  0  0  0
  2  1  2  0  0  0  0
  3  4  2  0  0  0  0
  4  5  1  0  0  0  0
  5 10  1  0  0  0  0
  6  5  2  0  0  0  0
  6  7  1  0  0  0  0
  7  8  2  0  0  0  0
  8  9  1  0  0  0  0
  8 11  1  0  0  0  0
 10  9  2  0  0  0  0
 11 12  1  0  0  0  0
 13 14  1  0  0  0  0
 14 15  1  6  0  0  0
 14 17  1  0  0  0  0
 16 15  1  0  0  0  0
 17 18  1  0  0  0  0
 20 18  1  0  0  0  0
 20 19  1  0  0  0  0
M  END
>  <MODEL>
4

>  <REMARK>
 VINA RESULT:      -4.8      2.158      7.697
  Name = s2_esm2_control_ligand
  12 active torsions:
  status: ('A' for Active; 'I' for Inactive)
    1  A    between atoms: C_1  and  C_2
    2  A    between atoms: C_2  and  C_3
    3  A    between atoms: C_3  and  C_4
    4  A    between atoms: C_4  and  C_5
    5  A    between atoms: C_5  and  C_6
    6  A    between atoms: C_5  and  O_8
    7  A    between atoms: C_6  and  C_7
    8  A    between atoms: O_8  and  C_9
    9  A    between atoms: C_9  and  C_11
   10  A    between atoms: C_12  and  C_13
   11  A    between atoms: C_16  and  O_17
   12  A    between atoms: O_17  and  C_18
                            x       y       z     vdW  Elec       q    Type
                         _______ _______ _______ _____ _____    ______ ____

>  <TORSDO>
F 9

$$$$
s2_esm2_control_ligand
 OpenBabel10092621053D

 20 20  0  0  1  0  0  0  0  0999 V2000
   -1.4560    4.1510   -2.9250 C   0  0  0  0  0  0  0  0  0  0  0  0
   -0.7120    3.6310   -3.7140 O   0  0  0  0  0  0  0  0  0  0  0  0
   -1.1810    5.4600   -2.2790 C   0  0  0  0  0  3  0  0  0  0  0  0
    0.0420    5.6610   -1.7130 C   0  0  0  0  0  3  0  0  0  0  0  0
    0.4490    6.9330   -1.0810 C   0  0  0  0  0  0  0  0  0  0  0  0
    1.5070    7.6280   -1.6380 C   0  0  0  0  0  3  0  0  0  0  0  0
    1.9210    8.8310   -1.0990 C   0  0  0  0  0  3  0  0  0  0  0  0
    1.2890    9.3570   -0.0020 C   0  0  0  0  0  0  0  0  0  0  0  0
    0.2330    8.6690    0.5540 C   0  0  0  0  0  3  0  0  0  0  0  0
   -0.1820    7.4590    0.0130 C   0  0  0  0  0  3  0  0  0  0  0  0
    1.7320   10.5400    0.4840 O   0  0  0  0  0  0  0  0  0  0  0  0
    3.0960   10.9050    0.3250 C   0  0  0  0  0  1  0  0  0  0  0  0
   -2.6240    3.5690   -2.5840 O   0  0  0  0  0  0  0  0  0  0  0  0
   -3.8360    4.0780   -3.1150 C   0  0  1  0  0  3  0  0  0  0  0  0
   -4.4460    3.0170   -4.0290 C   0  0  0  0  0  2  0  0  0  0  0  0
   -4.2140    3.2600   -5.5100 C   0  0  0  0  0  1  0  0  0  0  0  0
   -4.7910    4.3960   -1.9910 C   0  0  0  0  0  2  0  0  0  0  0  0
   -5.2000    3.2020   -1.1860 C   0  0  0  0  0  2  0  0  0  0  0  0
   -6.8730    4.9140   -0.4830 C   0  0  0  0  0  1  0  0  0  0  0  0
   -6.4670    3.4460   -0.4200 C   0  0  0  0  0  2  0  0  0  0  0  0
  1 13  1  0  0  0  0
  1  3  1  0  0  0  0
  2  1  2  0  0  0  0
  3  4  2  0  0  0  0
  4  5  1  0  0  0  0
  5 10  1  0  0  0  0
  6  7  1  0  0  0  0
  6  5  2  0  0  0  0
  7  8  2  0  0  0  0
  8 11  1  0  0  0  0
  8  9  1  0  0  0  0
 10  9  2  0  0  0  0
 12 11  1  0  0  0  0
 14 15  1  6  0  0  0
 14 13  1  0  0  0  0
 14 17  1  0  0  0  0
 16 15  1  0  0  0  0
 17 18  1  0  0  0  0
 18 20  1  0  0  0  0
 19 20  1  0  0  0  0
M  END
>  <MODEL>
5

>  <REMARK>
 VINA RESULT:      -4.7      1.314      2.157
  Name = s2_esm2_control_ligand
  12 active torsions:
  status: ('A' for Active; 'I' for Inactive)
    1  A    between atoms: C_1  and  C_2
    2  A    between atoms: C_2  and  C_3
    3  A    between atoms: C_3  and  C_4
    4  A    between atoms: C_4  and  C_5
    5  A    between atoms: C_5  and  C_6
    6  A    between atoms: C_5  and  O_8
    7  A    between atoms: C_6  and  C_7
    8  A    between atoms: O_8  and  C_9
    9  A    between atoms: C_9  and  C_11
   10  A    between atoms: C_12  and  C_13
   11  A    between atoms: C_16  and  O_17
   12  A    between atoms: O_17  and  C_18
                            x       y       z     vdW  Elec       q    Type
                         _______ _______ _______ _____ _____    ______ ____

>  <TORSDO>
F 9

$$$$
s2_esm2_control_ligand
 OpenBabel10092621053D

 20 20  0  0  1  0  0  0  0  0999 V2000
   -5.2270    7.8930    9.0070 C   0  0  0  0  0  0  0  0  0  0  0  0
   -6.4240    7.9940    9.0630 O   0  0  0  0  0  0  0  0  0  0  0  0
   -4.4510    6.8980    9.7900 C   0  0  0  0  0  3  0  0  0  0  0  0
   -4.6550    6.8280   11.1350 C   0  0  0  0  0  3  0  0  0  0  0  0
   -3.9760    5.8530   12.0130 C   0  0  0  0  0  0  0  0  0  0  0  0
   -2.7780    5.3110   11.5820 C   0  0  0  0  0  3  0  0  0  0  0  0
   -2.0910    4.4060   12.3690 C   0  0  0  0  0  3  0  0  0  0  0  0
   -2.5850    4.0300   13.5900 C   0  0  0  0  0  0  0  0  0  0  0  0
   -3.7760    4.5690   14.0240 C   0  0  0  0  0  3  0  0  0  0  0  0
   -4.4680    5.4780   13.2330 C   0  0  0  0  0  3  0  0  0  0  0  0
   -1.8710    3.1430   14.3230 O   0  0  0  0  0  0  0  0  0  0  0  0
   -2.2000    2.9250   15.6880 C   0  0  0  0  0  1  0  0  0  0  0  0
   -4.5010    8.6870    8.1940 O   0  0  0  0  0  0  0  0  0  0  0  0
   -3.4970    9.5200    8.7490 C   0  0  1  0  0  3  0  0  0  0  0  0
   -2.7340   10.1860    7.6050 C   0  0  0  0  0  2  0  0  0  0  0  0
   -3.3600    9.9840    6.2360 C   0  0  0  0  0  1  0  0  0  0  0  0
   -4.1350   10.5740    9.6210 C   0  0  0  0  0  2  0  0  0  0  0  0
   -3.5880   10.6220   11.0140 C   0  0  0  0  0  2  0  0  0  0  0  0
   -5.8290   10.1210   11.9880 C   0  0  0  0  0  1  0  0  0  0  0  0
   -4.6230   11.0530   12.0110 C   0  0  0  0  0  2  0  0  0  0  0  0
  1  2  2  0  0  0  0
  1  3  1  0  0  0  0
  3  4  2  0  0  0  0
  4  5  1  0  0  0  0
  5 10  1  0  0  0  0
  6  5  2  0  0  0  0
  6  7  1  0  0  0  0
  7  8  2  0  0  0  0
  8  9  1  0  0  0  0
  8 11  1  0  0  0  0
 10  9  2  0  0  0  0
 11 12  1  0  0  0  0
 13 14  1  0  0  0  0
 13  1  1  0  0  0  0
 14 15  1  6  0  0  0
 14 17  1  0  0  0  0
 16 15  1  0  0  0  0
 17 18  1  0  0  0  0
 18 20  1  0  0  0  0
 19 20  1  0  0  0  0
M  END
>  <MODEL>
6

>  <REMARK>
 VINA RESULT:      -4.6     11.138     14.069
  Name = s2_esm2_control_ligand
  12 active torsions:
  status: ('A' for Active; 'I' for Inactive)
    1  A    between atoms: C_1  and  C_2
    2  A    between atoms: C_2  and  C_3
    3  A    between atoms: C_3  and  C_4
    4  A    between atoms: C_4  and  C_5
    5  A    between atoms: C_5  and  C_6
    6  A    between atoms: C_5  and  O_8
    7  A    between atoms: C_6  and  C_7
    8  A    between atoms: O_8  and  C_9
    9  A    between atoms: C_9  and  C_11
   10  A    between atoms: C_12  and  C_13
   11  A    between atoms: C_16  and  O_17
   12  A    between atoms: O_17  and  C_18
                            x       y       z     vdW  Elec       q    Type
                         _______ _______ _______ _____ _____    ______ ____

>  <TORSDO>
F 9

$$$$
s2_esm2_control_ligand
 OpenBabel10092621053D

 20 20  0  0  1  0  0  0  0  0999 V2000
    6.3480    5.7910    4.6090 C   0  0  0  0  0  0  0  0  0  0  0  0
    5.4240    5.3010    4.0170 O   0  0  0  0  0  0  0  0  0  0  0  0
    6.4700    5.7840    6.0890 C   0  0  0  0  0  3  0  0  0  0  0  0
    6.5690    4.5840    6.7260 C   0  0  0  0  0  3  0  0  0  0  0  0
    6.7380    4.4490    8.1870 C   0  0  0  0  0  0  0  0  0  0  0  0
    8.0240    4.4580    8.6980 C   0  0  0  0  0  3  0  0  0  0  0  0
    8.2420    4.3510   10.0580 C   0  0  0  0  0  3  0  0  0  0  0  0
    7.1880    4.2340   10.9250 C   0  0  0  0  0  0  0  0  0  0  0  0
    5.9060    4.2270   10.4210 C   0  0  0  0  0  3  0  0  0  0  0  0
    5.6860    4.3330    9.0540 C   0  0  0  0  0  3  0  0  0  0  0  0
    7.4560    4.1360   12.2490 O   0  0  0  0  0  0  0  0  0  0  0  0
    8.5620    4.8380   12.8010 C   0  0  0  0  0  1  0  0  0  0  0  0
    7.3660    6.3760    3.9440 O   0  0  0  0  0  0  0  0  0  0  0  0
    8.6260    6.5100    4.5800 C   0  0  1  0  0  3  0  0  0  0  0  0
    9.6470    5.6750    3.8100 C   0  0  0  0  0  2  0  0  0  0  0  0
   10.0250    4.3700    4.4890 C   0  0  0  0  0  1  0  0  0  0  0  0
    9.0450    7.9600    4.5780 C   0  0  0  0  0  2  0  0  0  0  0  0
    9.0680    8.5870    5.9380 C   0  0  0  0  0  2  0  0  0  0  0  0
   10.7080    7.7640    7.6280 C   0  0  0  0  0  1  0  0  0  0  0  0
    9.3230    7.5780    7.0190 C   0  0  0  0  0  2  0  0  0  0  0  0
  1  3  1  0  0  0  0
  2  1  2  0  0  0  0
  3  4  2  0  0  0  0
  4  5  1  0  0  0  0
  5  6  2  0  0  0  0
  5 10  1  0  0  0  0
  6  7  1  0  0  0  0
  7  8  2  0  0  0  0
  8 11  1  0  0  0  0
  9  8  1  0  0  0  0
 10  9  2  0  0  0  0
 11 12  1  0  0  0  0
 13 14  1  0  0  0  0
 13  1  1  0  0  0  0
 14 15  1  6  0  0  0
 15 16  1  0  0  0  0
 17 14  1  0  0  0  0
 17 18  1  0  0  0  0
 18 20  1  0  0  0  0
 20 19  1  0  0  0  0
M  END
>  <MODEL>
7

>  <REMARK>
 VINA RESULT:      -4.6     10.609     13.603
  Name = s2_esm2_control_ligand
  12 active torsions:
  status: ('A' for Active; 'I' for Inactive)
    1  A    between atoms: C_1  and  C_2
    2  A    between atoms: C_2  and  C_3
    3  A    between atoms: C_3  and  C_4
    4  A    between atoms: C_4  and  C_5
    5  A    between atoms: C_5  and  C_6
    6  A    between atoms: C_5  and  O_8
    7  A    between atoms: C_6  and  C_7
    8  A    between atoms: O_8  and  C_9
    9  A    between atoms: C_9  and  C_11
   10  A    between atoms: C_12  and  C_13
   11  A    between atoms: C_16  and  O_17
   12  A    between atoms: O_17  and  C_18
                            x       y       z     vdW  Elec       q    Type
                         _______ _______ _______ _____ _____    ______ ____

>  <TORSDO>
F 9

$$$$
s2_esm2_control_ligand
 OpenBabel10092621053D

 20 20  0  0  1  0  0  0  0  0999 V2000
   -1.1260    4.5350   -3.4120 C   0  0  0  0  0  0  0  0  0  0  0  0
   -1.1580    4.1910   -4.5640 O   0  0  0  0  0  0  0  0  0  0  0  0
   -2.2950    4.4560   -2.5000 C   0  0  0  0  0  3  0  0  0  0  0  0
   -3.2340    3.4960   -2.7310 C   0  0  0  0  0  3  0  0  0  0  0  0
   -4.4170    3.2900   -1.8700 C   0  0  0  0  0  0  0  0  0  0  0  0
   -4.6290    2.0270   -1.3460 C   0  0  0  0  0  3  0  0  0  0  0  0
   -5.7110    1.7790   -0.5220 C   0  0  0  0  0  3  0  0  0  0  0  0
   -6.5910    2.7810   -0.2080 C   0  0  0  0  0  0  0  0  0  0  0  0
   -6.3820    4.0400   -0.7260 C   0  0  0  0  0  3  0  0  0  0  0  0
   -5.2960    4.2900   -1.5560 C   0  0  0  0  0  3  0  0  0  0  0  0
   -7.6310    2.4860    0.6060 O   0  0  0  0  0  0  0  0  0  0  0  0
   -7.5940    2.8770    1.9730 C   0  0  0  0  0  1  0  0  0  0  0  0
    0.0110    5.0080   -2.8600 O   0  0  0  0  0  0  0  0  0  0  0  0
    0.0350    6.3260   -2.3390 C   0  0  1  0  0  3  0  0  0  0  0  0
    0.3660    6.2510   -0.8500 C   0  0  0  0  0  2  0  0  0  0  0  0
   -0.0350    7.4830   -0.0590 C   0  0  0  0  0  1  0  0  0  0  0  0
    1.0860    7.1380   -3.0570 C   0  0  0  0  0  2  0  0  0  0  0  0
    2.4870    6.8320   -2.6280 C   0  0  0  0  0  2  0  0  0  0  0  0
    2.9200    9.0850   -1.6480 C   0  0  0  0  0  1  0  0  0  0  0  0
    3.3680    8.0460   -2.6710 C   0  0  0  0  0  2  0  0  0  0  0  0
  1 13  1  0  0  0  0
  1  3  1  0  0  0  0
  2  1  2  0  0  0  0
  4  3  2  0  0  0  0
  4  5  1  0  0  0  0
  5 10  2  0  0  0  0
  5  6  1  0  0  0  0
  6  7  2  0  0  0  0
  7  8  1  0  0  0  0
  8 11  1  0  0  0  0
  9  8  2  0  0  0  0
 10  9  1  0  0  0  0
 11 12  1  0  0  0  0
 13 14  1  0  0  0  0
 14 17  1  6  0  0  0
 14 15  1  0  0  0  0
 15 16  1  0  0  0  0
 17 18  1  0  0  0  0
 20 18  1  0  0  0  0
 20 19  1  0  0  0  0
M  END
>  <MODEL>
8

>  <REMARK>
 VINA RESULT:      -4.5      2.218      7.524
  Name = s2_esm2_control_ligand
  12 active torsions:
  status: ('A' for Active; 'I' for Inactive)
    1  A    between atoms: C_1  and  C_2
    2  A    between atoms: C_2  and  C_3
    3  A    between atoms: C_3  and  C_4
    4  A    between atoms: C_4  and  C_5
    5  A    between atoms: C_5  and  C_6
    6  A    between atoms: C_5  and  O_8
    7  A    between atoms: C_6  and  C_7
    8  A    between atoms: O_8  and  C_9
    9  A    between atoms: C_9  and  C_11
   10  A    between atoms: C_12  and  C_13
   11  A    between atoms: C_16  and  O_17
   12  A    between atoms: O_17  and  C_18
                            x       y       z     vdW  Elec       q    Type
                         _______ _______ _______ _____ _____    ______ ____

>  <TORSDO>
F 9

$$$$
s2_esm2_control_ligand
 OpenBabel10092621053D

 20 20  0  0  1  0  0  0  0  0999 V2000
   -0.0550    5.3240   -2.0030 C   0  0  0  0  0  0  0  0  0  0  0  0
    0.6180    4.8530   -2.8800 O   0  0  0  0  0  0  0  0  0  0  0  0
    0.4480    6.3310   -1.0340 C   0  0  0  0  0  3  0  0  0  0  0  0
   -0.2970    7.4500   -0.8140 C   0  0  0  0  0  3  0  0  0  0  0  0
    0.0750    8.5010    0.1550 C   0  0  0  0  0  0  0  0  0  0  0  0
    1.2430    9.2080   -0.0680 C   0  0  0  0  0  3  0  0  0  0  0  0
    1.6330   10.2140    0.7970 C   0  0  0  0  0  3  0  0  0  0  0  0
    0.8690   10.5270    1.8900 C   0  0  0  0  0  0  0  0  0  0  0  0
   -0.2960    9.8260    2.1140 C   0  0  0  0  0  3  0  0  0  0  0  0
   -0.6880    8.8150    1.2470 C   0  0  0  0  0  3  0  0  0  0  0  0
    1.2940   11.5220    2.7030 O   0  0  0  0  0  0  0  0  0  0  0  0
    1.6410   12.7860    2.1540 C   0  0  0  0  0  1  0  0  0  0  0  0
   -1.3480    4.9700   -1.8540 O   0  0  0  0  0  0  0  0  0  0  0  0
   -2.2160    5.0150   -2.9740 C   0  0  1  0  0  3  0  0  0  0  0  0
   -2.7360    3.6040   -3.2390 C   0  0  0  0  0  2  0  0  0  0  0  0
   -3.8270    3.1510   -2.2850 C   0  0  0  0  0  1  0  0  0  0  0  0
   -3.3720    5.9410   -2.6860 C   0  0  0  0  0  2  0  0  0  0  0  0
   -3.0790    7.3830   -2.9650 C   0  0  0  0  0  2  0  0  0  0  0  0
   -3.2780    9.4710   -1.6150 C   0  0  0  0  0  1  0  0  0  0  0  0
   -4.0230    8.3000   -2.2440 C   0  0  0  0  0  2  0  0  0  0  0  0
  1 13  1  0  0  0  0
  1  3  1  0  0  0  0
  2  1  2  0  0  0  0
  3  4  2  0  0  0  0
  4  5  1  0  0  0  0
  5 10  1  0  0  0  0
  6  5  2  0  0  0  0
  6  7  1  0  0  0  0
  7  8  2  0  0  0  0
  8  9  1  0  0  0  0
  8 11  1  0  0  0  0
 10  9  2  0  0  0  0
 12 11  1  0  0  0  0
 14 15  1  1  0  0  0
 14 17  1  0  0  0  0
 14 13  1  0  0  0  0
 15 16  1  0  0  0  0
 18 17  1  0  0  0  0
 18 20  1  0  0  0  0
 20 19  1  0  0  0  0
M  END
>  <MODEL>
9

>  <REMARK>
 VINA RESULT:      -4.5      1.328      3.186
  Name = s2_esm2_control_ligand
  12 active torsions:
  status: ('A' for Active; 'I' for Inactive)
    1  A    between atoms: C_1  and  C_2
    2  A    between atoms: C_2  and  C_3
    3  A    between atoms: C_3  and  C_4
    4  A    between atoms: C_4  and  C_5
    5  A    between atoms: C_5  and  C_6
    6  A    between atoms: C_5  and  O_8
    7  A    between atoms: C_6  and  C_7
    8  A    between atoms: O_8  and  C_9
    9  A    between atoms: C_9  and  C_11
   10  A    between atoms: C_12  and  C_13
   11  A    between atoms: C_16  and  O_17
   12  A    between atoms: O_17  and  C_18
                            x       y       z     vdW  Elec       q    Type
                         _______ _______ _______ _____ _____    ______ ____

>  <TORSDO>
F 9

$$$$
