shuffle_control_esm0_dockpose1
     RDKit          3D

 20 20  0  0  0  0  0  0  0  0999 V2000
    1.6680    8.5810    4.2550 C   0  0  0  0  0  0  0  0  0  0  0  0
    1.6820   10.0690    4.2910 C   0  0  0  0  0  0  0  0  0  0  0  0
    1.2510   10.7300    5.5650 C   0  0  0  0  0  0  0  0  0  0  0  0
   -0.2070   10.7410    5.8690 C   0  0  0  0  0  0  0  0  0  0  0  0
   -0.7890   12.0990    6.0900 C   0  0  1  0  0  0  0  0  0  0  0  0
   -0.2260   12.6400    7.3920 C   0  0  0  0  0  0  0  0  0  0  0  0
   -1.2220   12.9430    8.4740 C   0  0  0  0  0  0  0  0  0  0  0  0
   -0.4500   12.9090    4.9690 O   0  0  0  0  0  0  0  0  0  0  0  0
   -1.3850   13.4360    4.1400 C   0  0  0  0  0  0  0  0  0  0  0  0
   -2.0390   14.3800    4.4530 O   0  0  0  0  0  0  0  0  0  0  0  0
   -1.5170   12.7270    2.8300 C   0  0  0  0  0  0  0  0  0  0  0  0
   -0.5880   11.8840    2.4180 C   0  0  0  0  0  0  0  0  0  0  0  0
   -0.5970   11.2440    1.0690 C   0  0  0  0  0  0  0  0  0  0  0  0
    0.0570   10.0490    0.9090 C   0  0  0  0  0  0  0  0  0  0  0  0
    0.1060    9.4240   -0.3300 C   0  0  0  0  0  0  0  0  0  0  0  0
   -0.5170    9.9930   -1.4250 C   0  0  0  0  0  0  0  0  0  0  0  0
   -0.4840    9.4240   -2.6480 O   0  0  0  0  0  0  0  0  0  0  0  0
   -1.7020    9.0150   -3.2660 C   0  0  0  0  0  0  0  0  0  0  0  0
   -1.1900   11.2040   -1.2600 C   0  0  0  0  0  0  0  0  0  0  0  0
   -1.2370   11.8260   -0.0090 C   0  0  0  0  0  0  0  0  0  0  0  0
  2  1  1  0
  3  2  1  0
  4  3  1  0
  5  4  1  6
  6  5  1  0
  7  6  1  0
  8  5  1  0
  9  8  1  0
 10  9  2  0
 11  9  1  0
 12 11  2  3
 13 12  1  0
 14 13  1  0
 15 14  2  0
 16 15  1  0
 17 16  1  0
 18 17  1  0
 19 16  2  0
 20 13  2  0
 20 19  1  0
M  END
