shuffle_control_dockpose9
     RDKit          3D

 20 20  0  0  0  0  0  0  0  0999 V2000
    4.6940    4.2710    1.1960 C   0  0  0  0  0  0  0  0  0  0  0  0
    5.6330    3.2140    0.6870 C   0  0  0  0  0  0  0  0  0  0  0  0
    4.8950    2.0260    0.1280 C   0  0  0  0  0  0  0  0  0  0  0  0
    3.4180    2.1350    0.3290 C   0  0  0  0  0  0  0  0  0  0  0  0
    2.8280    1.0200    1.1620 C   0  0  2  0  0  0  0  0  0  0  0  0
    2.6980   -0.2270    0.3010 C   0  0  0  0  0  0  0  0  0  0  0  0
    1.5650   -0.2100   -0.6670 C   0  0  0  0  0  0  0  0  0  0  0  0
    1.5540    1.4260    1.6190 O   0  0  0  0  0  0  0  0  0  0  0  0
    1.2460    2.7240    1.6950 C   0  0  0  0  0  0  0  0  0  0  0  0
    1.5520    3.3920    2.6460 O   0  0  0  0  0  0  0  0  0  0  0  0
    0.5050    3.2350    0.5160 C   0  0  0  0  0  0  0  0  0  0  0  0
   -0.7950    3.5310    0.6010 C   0  0  0  0  0  0  0  0  0  0  0  0
   -1.6090    4.0180   -0.5370 C   0  0  0  0  0  0  0  0  0  0  0  0
   -2.7980    3.4370   -0.8930 C   0  0  0  0  0  0  0  0  0  0  0  0
   -3.5320    3.9280   -1.9690 C   0  0  0  0  0  0  0  0  0  0  0  0
   -3.0750    4.9990   -2.6910 C   0  0  0  0  0  0  0  0  0  0  0  0
   -3.7510    5.5310   -3.7500 O   0  0  0  0  0  0  0  0  0  0  0  0
   -3.0370    6.0700   -4.8470 C   0  0  0  0  0  0  0  0  0  0  0  0
   -1.8830    5.5840   -2.3400 C   0  0  0  0  0  0  0  0  0  0  0  0
   -1.1480    5.0940   -1.2670 C   0  0  0  0  0  0  0  0  0  0  0  0
  2  1  1  0
  3  2  1  0
  4  3  1  0
  5  4  1  6
  6  5  1  0
  7  6  1  0
  8  5  1  0
  9  8  1  0
 10  9  2  0
 11  9  1  0
 12 11  2  3
 13 12  1  0
 14 13  1  0
 15 14  2  0
 16 15  1  0
 17 16  1  0
 18 17  1  0
 19 16  2  0
 20 19  1  0
 20 13  2  0
M  END
$$$$
