s3_orig_f12_ligand
     RDKit          3D

 44 44  0  0  0  0  0  0  0  0999 V2000
   -5.9382    3.4970    9.7385 C   0  0  0  0  0  0  0  0  0  0  0  0
   -6.0582    3.7720    8.2553 C   0  0  0  0  0  0  0  0  0  0  0  0
   -5.0636    2.9675    7.4582 C   0  0  0  0  0  0  0  0  0  0  0  0
   -5.1822    3.1968    5.9873 C   0  0  0  0  0  0  0  0  0  0  0  0
   -3.8885    3.0274    5.2066 C   0  0  2  0  0  0  0  0  0  0  0  0
   -4.1891    2.8901    3.7256 C   0  0  0  0  0  0  0  0  0  0  0  0
   -5.0638    4.0048    3.1629 C   0  0  0  0  0  0  0  0  0  0  0  0
   -3.1959    1.9876    5.6291 O   0  0  0  0  0  0  0  0  0  0  0  0
   -2.7965    0.8400    5.8698 C   0  0  0  0  0  0  0  0  0  0  0  0
   -3.4190   -0.0874    5.4201 O   0  0  0  0  0  0  0  0  0  0  0  0
   -1.5988    0.7006    6.7306 C   0  0  0  0  0  0  0  0  0  0  0  0
   -1.1126   -0.4892    7.0747 C   0  0  0  0  0  0  0  0  0  0  0  0
    0.0215   -0.6923    8.0113 C   0  0  0  0  0  0  0  0  0  0  0  0
    0.2444   -1.9518    8.5426 C   0  0  0  0  0  0  0  0  0  0  0  0
    1.2475   -2.1537    9.4838 C   0  0  0  0  0  0  0  0  0  0  0  0
    2.0793   -1.1196    9.8609 C   0  0  0  0  0  0  0  0  0  0  0  0
    3.0981   -1.2777   10.7781 O   0  0  0  0  0  0  0  0  0  0  0  0
    2.9234   -2.2474   11.7944 C   0  0  0  0  0  0  0  0  0  0  0  0
    1.8889    0.1124    9.2933 C   0  0  0  0  0  0  0  0  0  0  0  0
    0.8638    0.3276    8.3729 C   0  0  0  0  0  0  0  0  0  0  0  0
   -5.5818    4.4026   10.2516 H   0  0  0  0  0  0  0  0  0  0  0  0
   -6.9219    3.2117   10.1393 H   0  0  0  0  0  0  0  0  0  0  0  0
   -5.2234    2.6772    9.9029 H   0  0  0  0  0  0  0  0  0  0  0  0
   -7.0745    3.5109    7.9252 H   0  0  0  0  0  0  0  0  0  0  0  0
   -5.8512    4.8389    8.0859 H   0  0  0  0  0  0  0  0  0  0  0  0
   -4.0487    3.2471    7.7770 H   0  0  0  0  0  0  0  0  0  0  0  0
   -5.2708    1.9036    7.6458 H   0  0  0  0  0  0  0  0  0  0  0  0
   -5.9180    2.4831    5.5885 H   0  0  0  0  0  0  0  0  0  0  0  0
   -5.4826    4.2476    5.8623 H   0  0  0  0  0  0  0  0  0  0  0  0
   -3.2755    3.9256    5.3728 H   0  0  0  0  0  0  0  0  0  0  0  0
   -3.2352    2.8893    3.1779 H   0  0  0  0  0  0  0  0  0  0  0  0
   -4.7506    1.9523    3.6011 H   0  0  0  0  0  0  0  0  0  0  0  0
   -5.0745    4.8520    3.8645 H   0  0  0  0  0  0  0  0  0  0  0  0
   -4.6590    4.3353    2.1950 H   0  0  0  0  0  0  0  0  0  0  0  0
   -6.0890    3.6314    3.0233 H   0  0  0  0  0  0  0  0  0  0  0  0
   -1.0963    1.6082    7.0963 H   0  0  0  0  0  0  0  0  0  0  0  0
   -1.5822   -1.3820    6.6361 H   0  0  0  0  0  0  0  0  0  0  0  0
   -0.3773   -2.7989    8.2173 H   0  0  0  0  0  0  0  0  0  0  0  0
    1.3795   -3.1492    9.9329 H   0  0  0  0  0  0  0  0  0  0  0  0
    3.1951   -1.8119   12.7673 H   0  0  0  0  0  0  0  0  0  0  0  0
    1.8717   -2.5688   11.8176 H   0  0  0  0  0  0  0  0  0  0  0  0
    3.5675   -3.1148   11.5882 H   0  0  0  0  0  0  0  0  0  0  0  0
    2.5544    0.9441    9.5675 H   0  0  0  0  0  0  0  0  0  0  0  0
    0.7293    1.3264    7.9322 H   0  0  0  0  0  0  0  0  0  0  0  0
  2  1  1  0
  3  2  1  0
  4  3  1  0
  5  4  1  0
  6  5  1  0
  7  6  1  0
  8  5  1  0
  9  8  1  0
 10  9  2  0
 11  9  1  0
 12 11  2  3
 13 12  1  0
 14 13  1  0
 15 14  2  0
 16 15  1  0
 17 16  1  0
 18 17  1  0
 19 16  2  0
 20 19  1  0
 20 13  2  0
  1 21  1  0
  1 22  1  0
  1 23  1  0
  2 24  1  0
  2 25  1  0
  3 26  1  0
  3 27  1  0
  4 28  1  0
  4 29  1  0
  5 30  1  6
  6 31  1  0
  6 32  1  0
  7 33  1  0
  7 34  1  0
  7 35  1  0
 11 36  1  0
 12 37  1  0
 14 38  1  0
 15 39  1  0
 18 40  1  0
 18 41  1  0
 18 42  1  0
 19 43  1  0
 20 44  1  0
M  END
$$$$
