s3_orig_f12_ligand
 OpenBabel10092621083D

 20 20  0  0  1  0  0  0  0  0999 V2000
    3.4960    8.3840    3.1600 C   0  0  0  0  0  0  0  0  0  0  0  0
    2.7390    8.1700    2.2480 O   0  0  0  0  0  0  0  0  0  0  0  0
    4.5560    7.4490    3.6010 C   0  0  0  0  0  3  0  0  0  0  0  0
    4.8230    7.2420    4.8880 C   0  0  0  0  0  3  0  0  0  0  0  0
    5.9340    6.3940    5.3880 C   0  0  0  0  0  0  0  0  0  0  0  0
    7.2410    6.7410    5.0840 C   0  0  0  0  0  3  0  0  0  0  0  0
    8.2970    5.9220    5.4700 C   0  0  0  0  0  3  0  0  0  0  0  0
    8.0700    4.7820    6.2120 C   0  0  0  0  0  0  0  0  0  0  0  0
    6.7810    4.4710    6.5550 C   0  0  0  0  0  3  0  0  0  0  0  0
    5.7150    5.2710    6.1440 C   0  0  0  0  0  3  0  0  0  0  0  0
    9.0870    3.9490    6.6300 O   0  0  0  0  0  0  0  0  0  0  0  0
    8.7370    2.8320    7.4250 C   0  0  0  0  0  1  0  0  0  0  0  0
    3.3630    9.4390    3.7980 O   0  0  0  0  0  0  0  0  0  0  0  0
    3.0570   10.3380    4.7120 C   0  0  1  0  0  3  0  0  0  0  0  0
    2.0930    9.7490    5.7240 C   0  0  0  0  0  2  0  0  0  0  0  0
    0.6960    9.4860    5.1730 C   0  0  0  0  0  1  0  0  0  0  0  0
    4.2940   10.8690    5.4170 C   0  0  0  0  0  2  0  0  0  0  0  0
    5.3760   11.3550    4.5090 C   0  0  0  0  0  2  0  0  0  0  0  0
    7.0670   10.0770    3.1840 C   0  0  0  0  0  1  0  0  0  0  0  0
    6.6130   10.4960    4.5660 C   0  0  0  0  0  2  0  0  0  0  0  0
  1  3  1  0  0  0  0
  1 13  1  0  0  0  0
  2  1  2  0  0  0  0
  3  4  2  0  0  0  0
  4  5  1  0  0  0  0
  5 10  1  0  0  0  0
  6  5  2  0  0  0  0
  6  7  1  0  0  0  0
  7  8  2  0  0  0  0
  8  9  1  0  0  0  0
  8 11  1  0  0  0  0
 10  9  2  0  0  0  0
 11 12  1  0  0  0  0
 13 14  1  0  0  0  0
 14 17  1  1  0  0  0
 14 15  1  0  0  0  0
 16 15  1  0  0  0  0
 18 20  1  0  0  0  0
 18 17  1  0  0  0  0
 19 20  1  0  0  0  0
M  END
>  <MODEL>
1

>  <REMARK>
 VINA RESULT:      -3.9      0.000      0.000
  Name = s3_orig_f12_ligand
  12 active torsions:
  status: ('A' for Active; 'I' for Inactive)
    1  A    between atoms: C_1  and  C_2
    2  A    between atoms: C_2  and  C_3
    3  A    between atoms: C_3  and  C_4
    4  A    between atoms: C_4  and  C_5
    5  A    between atoms: C_5  and  C_6
    6  A    between atoms: C_5  and  O_8
    7  A    between atoms: C_6  and  C_7
    8  A    between atoms: O_8  and  C_9
    9  A    between atoms: C_9  and  C_11
   10  A    between atoms: C_12  and  C_13
   11  A    between atoms: C_16  and  O_17
   12  A    between atoms: O_17  and  C_18
                            x       y       z     vdW  Elec       q    Type
                         _______ _______ _______ _____ _____    ______ ____

>  <TORSDO>
F 9

$$$$
s3_orig_f12_ligand
 OpenBabel10092621083D

 20 20  0  0  1  0  0  0  0  0999 V2000
   -4.4600   -2.5280   10.1140 C   0  0  0  0  0  0  0  0  0  0  0  0
   -4.2110   -1.6110   10.8540 O   0  0  0  0  0  0  0  0  0  0  0  0
   -3.7260   -3.8140   10.1050 C   0  0  0  0  0  3  0  0  0  0  0  0
   -3.3230   -4.3870    8.9730 C   0  0  0  0  0  3  0  0  0  0  0  0
   -2.6710   -5.7180    8.8940 C   0  0  0  0  0  0  0  0  0  0  0  0
   -2.2350   -6.3300   10.0580 C   0  0  0  0  0  3  0  0  0  0  0  0
   -1.5500   -7.5390   10.0070 C   0  0  0  0  0  3  0  0  0  0  0  0
   -1.3430   -8.1820    8.8040 C   0  0  0  0  0  0  0  0  0  0  0  0
   -1.8220   -7.5990    7.6610 C   0  0  0  0  0  3  0  0  0  0  0  0
   -2.4830   -6.3720    7.7030 C   0  0  0  0  0  3  0  0  0  0  0  0
   -0.6830   -9.3900    8.7080 O   0  0  0  0  0  0  0  0  0  0  0  0
   -0.1400   -9.7430    7.4500 C   0  0  0  0  0  1  0  0  0  0  0  0
   -5.3660   -2.3810    9.2810 O   0  0  0  0  0  0  0  0  0  0  0  0
   -6.5000   -2.4590    8.6140 C   0  0  1  0  0  3  0  0  0  0  0  0
   -6.2660   -2.1590    7.1450 C   0  0  0  0  0  2  0  0  0  0  0  0
   -4.8140   -1.8510    6.7980 C   0  0  0  0  0  1  0  0  0  0  0  0
   -7.1530   -3.8230    8.7700 C   0  0  0  0  0  2  0  0  0  0  0  0
   -7.1460   -4.6680    7.5380 C   0  0  0  0  0  2  0  0  0  0  0  0
   -6.3700   -6.4710    9.0860 C   0  0  0  0  0  1  0  0  0  0  0  0
   -6.2950   -5.9030    7.6840 C   0  0  0  0  0  2  0  0  0  0  0  0
  1  2  2  0  0  0  0
  3  1  1  0  0  0  0
  4  3  2  0  0  0  0
  5  4  1  0  0  0  0
  5  6  1  0  0  0  0
  7  6  2  0  0  0  0
  8  7  1  0  0  0  0
  9 10  1  0  0  0  0
  9  8  2  0  0  0  0
 10  5  2  0  0  0  0
 11  8  1  0  0  0  0
 12 11  1  0  0  0  0
 13  1  1  0  0  0  0
 14 15  1  6  0  0  0
 14 17  1  0  0  0  0
 14 13  1  0  0  0  0
 16 15  1  0  0  0  0
 18 20  1  0  0  0  0
 18 17  1  0  0  0  0
 20 19  1  0  0  0  0
M  END
>  <MODEL>
2

>  <REMARK>
 VINA RESULT:      -3.7     14.876     16.633
  Name = s3_orig_f12_ligand
  12 active torsions:
  status: ('A' for Active; 'I' for Inactive)
    1  A    between atoms: C_1  and  C_2
    2  A    between atoms: C_2  and  C_3
    3  A    between atoms: C_3  and  C_4
    4  A    between atoms: C_4  and  C_5
    5  A    between atoms: C_5  and  C_6
    6  A    between atoms: C_5  and  O_8
    7  A    between atoms: C_6  and  C_7
    8  A    between atoms: O_8  and  C_9
    9  A    between atoms: C_9  and  C_11
   10  A    between atoms: C_12  and  C_13
   11  A    between atoms: C_16  and  O_17
   12  A    between atoms: O_17  and  C_18
                            x       y       z     vdW  Elec       q    Type
                         _______ _______ _______ _____ _____    ______ ____

>  <TORSDO>
F 9

$$$$
s3_orig_f12_ligand
 OpenBabel10092621083D

 20 20  0  0  1  0  0  0  0  0999 V2000
   -3.6630   -7.4890    0.0120 C   0  0  0  0  0  0  0  0  0  0  0  0
   -2.8670   -8.3120    0.3860 O   0  0  0  0  0  0  0  0  0  0  0  0
   -4.6880   -6.8660    0.8800 C   0  0  0  0  0  3  0  0  0  0  0  0
   -5.8370   -7.4750    1.1610 C   0  0  0  0  0  3  0  0  0  0  0  0
   -6.9400   -6.8620    1.9430 C   0  0  0  0  0  0  0  0  0  0  0  0
   -6.7630   -6.6280    3.2970 C   0  0  0  0  0  3  0  0  0  0  0  0
   -7.8070   -6.1300    4.0710 C   0  0  0  0  0  3  0  0  0  0  0  0
   -9.0170   -5.8030    3.4950 C   0  0  0  0  0  0  0  0  0  0  0  0
   -9.1700   -5.9860    2.1460 C   0  0  0  0  0  3  0  0  0  0  0  0
   -8.1380   -6.5150    1.3720 C   0  0  0  0  0  3  0  0  0  0  0  0
  -10.0740   -5.2910    4.2200 O   0  0  0  0  0  0  0  0  0  0  0  0
  -10.7930   -4.2100    3.6580 C   0  0  0  0  0  1  0  0  0  0  0  0
   -3.6510   -7.1630   -1.1830 O   0  0  0  0  0  0  0  0  0  0  0  0
   -3.8430   -7.1140   -2.4870 C   0  0  1  0  0  3  0  0  0  0  0  0
   -4.8120   -8.2010   -2.9140 C   0  0  0  0  0  2  0  0  0  0  0  0
   -4.1690   -9.5720   -3.0940 C   0  0  0  0  0  1  0  0  0  0  0  0
   -4.3560   -5.7540   -2.9310 C   0  0  0  0  0  2  0  0  0  0  0  0
   -5.8440   -5.6230   -2.9630 C   0  0  0  0  0  2  0  0  0  0  0  0
   -7.8710   -4.6960   -1.8330 C   0  0  0  0  0  1  0  0  0  0  0  0
   -6.4050   -5.0470   -1.6890 C   0  0  0  0  0  2  0  0  0  0  0  0
  1  2  2  0  0  0  0
  1  3  1  0  0  0  0
  3  4  2  0  0  0  0
  4  5  1  0  0  0  0
  5  6  1  0  0  0  0
  6  7  2  0  0  0  0
  8  7  1  0  0  0  0
  8 11  1  0  0  0  0
  9  8  2  0  0  0  0
 10  5  2  0  0  0  0
 10  9  1  0  0  0  0
 12 11  1  0  0  0  0
 13  1  1  0  0  0  0
 14 17  1  1  0  0  0
 14 13  1  0  0  0  0
 15 14  1  0  0  0  0
 16 15  1  0  0  0  0
 18 17  1  0  0  0  0
 18 20  1  0  0  0  0
 19 20  1  0  0  0  0
M  END
>  <MODEL>
3

>  <REMARK>
 VINA RESULT:      -3.5     18.485     19.890
  Name = s3_orig_f12_ligand
  12 active torsions:
  status: ('A' for Active; 'I' for Inactive)
    1  A    between atoms: C_1  and  C_2
    2  A    between atoms: C_2  and  C_3
    3  A    between atoms: C_3  and  C_4
    4  A    between atoms: C_4  and  C_5
    5  A    between atoms: C_5  and  C_6
    6  A    between atoms: C_5  and  O_8
    7  A    between atoms: C_6  and  C_7
    8  A    between atoms: O_8  and  C_9
    9  A    between atoms: C_9  and  C_11
   10  A    between atoms: C_12  and  C_13
   11  A    between atoms: C_16  and  O_17
   12  A    between atoms: O_17  and  C_18
                            x       y       z     vdW  Elec       q    Type
                         _______ _______ _______ _____ _____    ______ ____

>  <TORSDO>
F 9

$$$$
s3_orig_f12_ligand
 OpenBabel10092621083D

 20 20  0  0  1  0  0  0  0  0999 V2000
    7.0940    6.9940    4.7960 C   0  0  0  0  0  0  0  0  0  0  0  0
    8.1240    6.6900    4.2510 O   0  0  0  0  0  0  0  0  0  0  0  0
    6.6290    6.4220    6.0800 C   0  0  0  0  0  3  0  0  0  0  0  0
    5.9700    5.2670    6.1400 C   0  0  0  0  0  3  0  0  0  0  0  0
    5.3960    4.6940    7.3830 C   0  0  0  0  0  0  0  0  0  0  0  0
    4.8890    3.4040    7.3630 C   0  0  0  0  0  3  0  0  0  0  0  0
    4.2730    2.8700    8.4900 C   0  0  0  0  0  3  0  0  0  0  0  0
    4.2070    3.5890    9.6650 C   0  0  0  0  0  0  0  0  0  0  0  0
    4.7570    4.8440    9.6960 C   0  0  0  0  0  3  0  0  0  0  0  0
    5.3480    5.3960    8.5600 C   0  0  0  0  0  3  0  0  0  0  0  0
    3.6200    3.0940   10.8110 O   0  0  0  0  0  0  0  0  0  0  0  0
    2.2250    3.2710   10.9640 C   0  0  0  0  0  1  0  0  0  0  0  0
    6.3530    7.8140    4.2350 O   0  0  0  0  0  0  0  0  0  0  0  0
    5.5320    8.8130    3.9770 C   0  0  1  0  0  3  0  0  0  0  0  0
    6.3070   10.1120    3.8650 C   0  0  0  0  0  2  0  0  0  0  0  0
    7.3680   10.1110    2.7680 C   0  0  0  0  0  1  0  0  0  0  0  0
    4.7320    8.5720    2.7070 C   0  0  0  0  0  2  0  0  0  0  0  0
    3.2590    8.4300    2.9090 C   0  0  0  0  0  2  0  0  0  0  0  0
    1.3580    9.1420    4.3680 C   0  0  0  0  0  1  0  0  0  0  0  0
    2.8270    8.7790    4.3100 C   0  0  0  0  0  2  0  0  0  0  0  0
  1  3  1  0  0  0  0
  2  1  2  0  0  0  0
  3  4  2  0  0  0  0
  4  5  1  0  0  0  0
  5 10  1  0  0  0  0
  6  5  2  0  0  0  0
  6  7  1  0  0  0  0
  7  8  2  0  0  0  0
  8  9  1  0  0  0  0
  8 11  1  0  0  0  0
 10  9  2  0  0  0  0
 11 12  1  0  0  0  0
 13  1  1  0  0  0  0
 14 17  1  6  0  0  0
 14 13  1  0  0  0  0
 15 14  1  0  0  0  0
 16 15  1  0  0  0  0
 17 18  1  0  0  0  0
 18 20  1  0  0  0  0
 20 19  1  0  0  0  0
M  END
>  <MODEL>
4

>  <REMARK>
 VINA RESULT:      -3.5      3.002      4.794
  Name = s3_orig_f12_ligand
  12 active torsions:
  status: ('A' for Active; 'I' for Inactive)
    1  A    between atoms: C_1  and  C_2
    2  A    between atoms: C_2  and  C_3
    3  A    between atoms: C_3  and  C_4
    4  A    between atoms: C_4  and  C_5
    5  A    between atoms: C_5  and  C_6
    6  A    between atoms: C_5  and  O_8
    7  A    between atoms: C_6  and  C_7
    8  A    between atoms: O_8  and  C_9
    9  A    between atoms: C_9  and  C_11
   10  A    between atoms: C_12  and  C_13
   11  A    between atoms: C_16  and  O_17
   12  A    between atoms: O_17  and  C_18
                            x       y       z     vdW  Elec       q    Type
                         _______ _______ _______ _____ _____    ______ ____

>  <TORSDO>
F 9

$$$$
s3_orig_f12_ligand
 OpenBabel10092621083D

 20 20  0  0  1  0  0  0  0  0999 V2000
    6.0930    7.4470    4.3430 C   0  0  0  0  0  0  0  0  0  0  0  0
    7.2340    7.3850    3.9630 O   0  0  0  0  0  0  0  0  0  0  0  0
    5.4840    6.5070    5.3110 C   0  0  0  0  0  3  0  0  0  0  0  0
    5.9740    6.3430    6.5370 C   0  0  0  0  0  3  0  0  0  0  0  0
    5.4680    5.3480    7.5160 C   0  0  0  0  0  0  0  0  0  0  0  0
    5.2710    4.0370    7.1100 C   0  0  0  0  0  3  0  0  0  0  0  0
    4.7220    3.1030    7.9820 C   0  0  0  0  0  3  0  0  0  0  0  0
    4.4190    3.4450    9.2830 C   0  0  0  0  0  0  0  0  0  0  0  0
    4.6640    4.7280    9.6950 C   0  0  0  0  0  3  0  0  0  0  0  0
    5.1850    5.6780    8.8170 C   0  0  0  0  0  3  0  0  0  0  0  0
    3.8880    2.5480   10.1860 O   0  0  0  0  0  0  0  0  0  0  0  0
    2.8230    1.7260    9.7480 C   0  0  0  0  0  1  0  0  0  0  0  0
    5.3650    8.3330    3.8720 O   0  0  0  0  0  0  0  0  0  0  0  0
    4.3880    9.1930    3.6610 C   0  0  1  0  0  3  0  0  0  0  0  0
    3.1190    8.4580    3.2710 C   0  0  0  0  0  2  0  0  0  0  0  0
    1.8900    8.8690    4.0740 C   0  0  0  0  0  1  0  0  0  0  0  0
    4.1310   10.0650    4.8790 C   0  0  0  0  0  2  0  0  0  0  0  0
    5.3520   10.4350    5.6560 C   0  0  0  0  0  2  0  0  0  0  0  0
    3.9780    9.2970    7.4060 C   0  0  0  0  0  1  0  0  0  0  0  0
    5.3050    9.9500    7.0820 C   0  0  0  0  0  2  0  0  0  0  0  0
  1  3  1  0  0  0  0
  2  1  2  0  0  0  0
  3  4  2  0  0  0  0
  4  5  1  0  0  0  0
  5 10  1  0  0  0  0
  6  5  2  0  0  0  0
  6  7  1  0  0  0  0
  7  8  2  0  0  0  0
  8  9  1  0  0  0  0
  8 11  1  0  0  0  0
 10  9  2  0  0  0  0
 12 11  1  0  0  0  0
 13  1  1  0  0  0  0
 14 15  1  1  0  0  0
 14 13  1  0  0  0  0
 14 17  1  0  0  0  0
 15 16  1  0  0  0  0
 17 18  1  0  0  0  0
 18 20  1  0  0  0  0
 20 19  1  0  0  0  0
M  END
>  <MODEL>
5

>  <REMARK>
 VINA RESULT:      -3.5      2.913      3.747
  Name = s3_orig_f12_ligand
  12 active torsions:
  status: ('A' for Active; 'I' for Inactive)
    1  A    between atoms: C_1  and  C_2
    2  A    between atoms: C_2  and  C_3
    3  A    between atoms: C_3  and  C_4
    4  A    between atoms: C_4  and  C_5
    5  A    between atoms: C_5  and  C_6
    6  A    between atoms: C_5  and  O_8
    7  A    between atoms: C_6  and  C_7
    8  A    between atoms: O_8  and  C_9
    9  A    between atoms: C_9  and  C_11
   10  A    between atoms: C_12  and  C_13
   11  A    between atoms: C_16  and  O_17
   12  A    between atoms: O_17  and  C_18
                            x       y       z     vdW  Elec       q    Type
                         _______ _______ _______ _____ _____    ______ ____

>  <TORSDO>
F 9

$$$$
s3_orig_f12_ligand
 OpenBabel10092621083D

 20 20  0  0  1  0  0  0  0  0999 V2000
   -4.9460   -1.6950    8.7880 C   0  0  0  0  0  0  0  0  0  0  0  0
   -4.5880   -0.5620    8.9860 O   0  0  0  0  0  0  0  0  0  0  0  0
   -4.2190   -2.8950    9.2620 C   0  0  0  0  0  3  0  0  0  0  0  0
   -3.6950   -3.7800    8.4180 C   0  0  0  0  0  3  0  0  0  0  0  0
   -3.0430   -5.0480    8.8330 C   0  0  0  0  0  0  0  0  0  0  0  0
   -2.6490   -5.9560    7.8630 C   0  0  0  0  0  3  0  0  0  0  0  0
   -2.1100   -7.1860    8.2250 C   0  0  0  0  0  3  0  0  0  0  0  0
   -1.9000   -7.5010    9.5510 C   0  0  0  0  0  0  0  0  0  0  0  0
   -2.2420   -6.5790   10.5040 C   0  0  0  0  0  3  0  0  0  0  0  0
   -2.8120   -5.3570   10.1490 C   0  0  0  0  0  3  0  0  0  0  0  0
   -1.3530   -8.7020    9.9550 O   0  0  0  0  0  0  0  0  0  0  0  0
   -0.3020   -9.2400    9.1750 C   0  0  0  0  0  1  0  0  0  0  0  0
   -5.9710   -1.8770    8.1150 O   0  0  0  0  0  0  0  0  0  0  0  0
   -7.1160   -2.3320    7.6460 C   0  0  1  0  0  3  0  0  0  0  0  0
   -7.8880   -1.2130    6.9730 C   0  0  0  0  0  2  0  0  0  0  0  0
   -9.4010   -1.3180    7.1320 C   0  0  0  0  0  1  0  0  0  0  0  0
   -6.9090   -3.4810    6.6720 C   0  0  0  0  0  2  0  0  0  0  0  0
   -7.0360   -4.8430    7.2720 C   0  0  0  0  0  2  0  0  0  0  0  0
   -6.6960   -5.7120    9.5900 C   0  0  0  0  0  1  0  0  0  0  0  0
   -7.5210   -4.8090    8.6980 C   0  0  0  0  0  2  0  0  0  0  0  0
  1  2  2  0  0  0  0
  1  3  1  0  0  0  0
  4  5  1  0  0  0  0
  4  3  2  0  0  0  0
  5 10  1  0  0  0  0
  6  7  1  0  0  0  0
  6  5  2  0  0  0  0
  7  8  2  0  0  0  0
  8 11  1  0  0  0  0
  8  9  1  0  0  0  0
 10  9  2  0  0  0  0
 12 11  1  0  0  0  0
 13  1  1  0  0  0  0
 14 17  1  6  0  0  0
 14 13  1  0  0  0  0
 15 16  1  0  0  0  0
 15 14  1  0  0  0  0
 17 18  1  0  0  0  0
 18 20  1  0  0  0  0
 20 19  1  0  0  0  0
M  END
>  <MODEL>
6

>  <REMARK>
 VINA RESULT:      -3.5     14.769     16.449
  Name = s3_orig_f12_ligand
  12 active torsions:
  status: ('A' for Active; 'I' for Inactive)
    1  A    between atoms: C_1  and  C_2
    2  A    between atoms: C_2  and  C_3
    3  A    between atoms: C_3  and  C_4
    4  A    between atoms: C_4  and  C_5
    5  A    between atoms: C_5  and  C_6
    6  A    between atoms: C_5  and  O_8
    7  A    between atoms: C_6  and  C_7
    8  A    between atoms: O_8  and  C_9
    9  A    between atoms: C_9  and  C_11
   10  A    between atoms: C_12  and  C_13
   11  A    between atoms: C_16  and  O_17
   12  A    between atoms: O_17  and  C_18
                            x       y       z     vdW  Elec       q    Type
                         _______ _______ _______ _____ _____    ______ ____

>  <TORSDO>
F 9

$$$$
s3_orig_f12_ligand
 OpenBabel10092621083D

 20 20  0  0  1  0  0  0  0  0999 V2000
    3.8200    9.4170    7.7640 C   0  0  0  0  0  0  0  0  0  0  0  0
    3.2440    9.7830    8.7560 O   0  0  0  0  0  0  0  0  0  0  0  0
    4.7640    8.2760    7.7220 C   0  0  0  0  0  3  0  0  0  0  0  0
    5.0620    7.6510    6.5850 C   0  0  0  0  0  3  0  0  0  0  0  0
    5.9220    6.4450    6.4940 C   0  0  0  0  0  0  0  0  0  0  0  0
    7.1660    6.5430    5.8920 C   0  0  0  0  0  3  0  0  0  0  0  0
    7.9590    5.4130    5.7200 C   0  0  0  0  0  3  0  0  0  0  0  0
    7.5500    4.1860    6.1970 C   0  0  0  0  0  0  0  0  0  0  0  0
    6.3420    4.1030    6.8390 C   0  0  0  0  0  3  0  0  0  0  0  0
    5.5290    5.2260    6.9860 C   0  0  0  0  0  3  0  0  0  0  0  0
    8.3100    3.0420    6.0640 O   0  0  0  0  0  0  0  0  0  0  0  0
    9.2250    2.7370    7.0990 C   0  0  0  0  0  1  0  0  0  0  0  0
    3.6430   10.0520    6.7150 O   0  0  0  0  0  0  0  0  0  0  0  0
    3.5900   10.9980    5.7980 C   0  0  1  0  0  3  0  0  0  0  0  0
    4.8210   11.8820    5.8870 C   0  0  0  0  0  2  0  0  0  0  0  0
    5.9590   11.4560    4.9660 C   0  0  0  0  0  1  0  0  0  0  0  0
    3.4630   10.4210    4.3980 C   0  0  0  0  0  2  0  0  0  0  0  0
    2.5860    9.2170    4.2920 C   0  0  0  0  0  2  0  0  0  0  0  0
    4.5790    8.5020    2.9630 C   0  0  0  0  0  1  0  0  0  0  0  0
    3.2080    8.1140    3.4750 C   0  0  0  0  0  2  0  0  0  0  0  0
  1  2  2  0  0  0  0
  3  1  1  0  0  0  0
  4  3  2  0  0  0  0
  5  4  1  0  0  0  0
  5 10  1  0  0  0  0
  6  5  2  0  0  0  0
  7  6  1  0  0  0  0
  7  8  2  0  0  0  0
  8  9  1  0  0  0  0
  9 10  2  0  0  0  0
 11  8  1  0  0  0  0
 11 12  1  0  0  0  0
 13  1  1  0  0  0  0
 14 17  1  6  0  0  0
 14 15  1  0  0  0  0
 14 13  1  0  0  0  0
 16 15  1  0  0  0  0
 18 17  1  0  0  0  0
 19 20  1  0  0  0  0
 20 18  1  0  0  0  0
M  END
>  <MODEL>
7

>  <REMARK>
 VINA RESULT:      -3.5      1.810      3.088
  Name = s3_orig_f12_ligand
  12 active torsions:
  status: ('A' for Active; 'I' for Inactive)
    1  A    between atoms: C_1  and  C_2
    2  A    between atoms: C_2  and  C_3
    3  A    between atoms: C_3  and  C_4
    4  A    between atoms: C_4  and  C_5
    5  A    between atoms: C_5  and  C_6
    6  A    between atoms: C_5  and  O_8
    7  A    between atoms: C_6  and  C_7
    8  A    between atoms: O_8  and  C_9
    9  A    between atoms: C_9  and  C_11
   10  A    between atoms: C_12  and  C_13
   11  A    between atoms: C_16  and  O_17
   12  A    between atoms: O_17  and  C_18
                            x       y       z     vdW  Elec       q    Type
                         _______ _______ _______ _____ _____    ______ ____

>  <TORSDO>
F 9

$$$$
s3_orig_f12_ligand
 OpenBabel10092621083D

 20 20  0  0  1  0  0  0  0  0999 V2000
   -0.6940   10.5190    5.5990 C   0  0  0  0  0  0  0  0  0  0  0  0
   -1.4870   11.3640    5.2700 O   0  0  0  0  0  0  0  0  0  0  0  0
    0.7170   10.4810    5.1510 C   0  0  0  0  0  3  0  0  0  0  0  0
    1.2510    9.3960    4.5950 C   0  0  0  0  0  3  0  0  0  0  0  0
    2.6800    9.2650    4.2170 C   0  0  0  0  0  0  0  0  0  0  0  0
    3.6330   10.0020    4.9030 C   0  0  0  0  0  3  0  0  0  0  0  0
    4.9690    9.9610    4.5180 C   0  0  0  0  0  3  0  0  0  0  0  0
    5.3810    9.1430    3.4870 C   0  0  0  0  0  0  0  0  0  0  0  0
    4.4440    8.3760    2.8470 C   0  0  0  0  0  3  0  0  0  0  0  0
    3.0980    8.4360    3.2070 C   0  0  0  0  0  3  0  0  0  0  0  0
    6.6970    9.0580    3.0820 O   0  0  0  0  0  0  0  0  0  0  0  0
    7.5570    8.2090    3.8180 C   0  0  0  0  0  1  0  0  0  0  0  0
   -1.0860    9.6000    6.3320 O   0  0  0  0  0  0  0  0  0  0  0  0
   -1.7620    8.8650    7.1920 C   0  0  1  0  0  3  0  0  0  0  0  0
   -2.7560    9.7260    7.9500 C   0  0  0  0  0  2  0  0  0  0  0  0
   -2.3260   10.0640    9.3740 C   0  0  0  0  0  1  0  0  0  0  0  0
   -2.4830    7.7160    6.5080 C   0  0  0  0  0  2  0  0  0  0  0  0
   -3.1520    6.7530    7.4330 C   0  0  0  0  0  2  0  0  0  0  0  0
   -2.5230    6.3280    9.8150 C   0  0  0  0  0  1  0  0  0  0  0  0
   -2.1830    6.0690    8.3620 C   0  0  0  0  0  2  0  0  0  0  0  0
  1 13  1  0  0  0  0
  2  1  2  0  0  0  0
  3  1  1  0  0  0  0
  4  3  2  0  0  0  0
  5  4  1  0  0  0  0
  5  6  1  0  0  0  0
  7  6  2  0  0  0  0
  8  7  1  0  0  0  0
  9 10  1  0  0  0  0
  9  8  2  0  0  0  0
 10  5  2  0  0  0  0
 11  8  1  0  0  0  0
 11 12  1  0  0  0  0
 13 14  1  0  0  0  0
 14 17  1  6  0  0  0
 14 15  1  0  0  0  0
 15 16  1  0  0  0  0
 17 18  1  0  0  0  0
 18 20  1  0  0  0  0
 20 19  1  0  0  0  0
M  END
>  <MODEL>
8

>  <REMARK>
 VINA RESULT:      -3.4      3.582      6.696
  Name = s3_orig_f12_ligand
  12 active torsions:
  status: ('A' for Active; 'I' for Inactive)
    1  A    between atoms: C_1  and  C_2
    2  A    between atoms: C_2  and  C_3
    3  A    between atoms: C_3  and  C_4
    4  A    between atoms: C_4  and  C_5
    5  A    between atoms: C_5  and  C_6
    6  A    between atoms: C_5  and  O_8
    7  A    between atoms: C_6  and  C_7
    8  A    between atoms: O_8  and  C_9
    9  A    between atoms: C_9  and  C_11
   10  A    between atoms: C_12  and  C_13
   11  A    between atoms: C_16  and  O_17
   12  A    between atoms: O_17  and  C_18
                            x       y       z     vdW  Elec       q    Type
                         _______ _______ _______ _____ _____    ______ ____

>  <TORSDO>
F 9

$$$$
s3_orig_f12_ligand
 OpenBabel10092621083D

 20 20  0  0  1  0  0  0  0  0999 V2000
    4.4890    9.5110    6.3490 C   0  0  0  0  0  0  0  0  0  0  0  0
    4.8780   10.5560    6.8030 O   0  0  0  0  0  0  0  0  0  0  0  0
    4.4970    8.2260    7.0860 C   0  0  0  0  0  3  0  0  0  0  0  0
    5.3990    7.2790    6.8420 C   0  0  0  0  0  3  0  0  0  0  0  0
    5.3990    5.9380    7.4770 C   0  0  0  0  0  0  0  0  0  0  0  0
    5.5440    4.8110    6.6830 C   0  0  0  0  0  3  0  0  0  0  0  0
    5.4670    3.5400    7.2410 C   0  0  0  0  0  3  0  0  0  0  0  0
    5.3040    3.3750    8.6000 C   0  0  0  0  0  0  0  0  0  0  0  0
    5.2140    4.4920    9.3890 C   0  0  0  0  0  3  0  0  0  0  0  0
    5.2590    5.7690    8.8310 C   0  0  0  0  0  3  0  0  0  0  0  0
    5.2380    2.1330    9.1990 O   0  0  0  0  0  0  0  0  0  0  0  0
    6.4490    1.4210    9.3690 C   0  0  0  0  0  1  0  0  0  0  0  0
    4.0850    9.4940    5.1770 O   0  0  0  0  0  0  0  0  0  0  0  0
    3.3330    9.4380    4.0960 C   0  0  1  0  0  3  0  0  0  0  0  0
    3.9670    8.5250    3.0640 C   0  0  0  0  0  2  0  0  0  0  0  0
    5.4540    8.7780    2.8390 C   0  0  0  0  0  1  0  0  0  0  0  0
    1.9230    8.9670    4.4130 C   0  0  0  0  0  2  0  0  0  0  0  0
    0.9650   10.0520    4.7800 C   0  0  0  0  0  2  0  0  0  0  0  0
    1.2070   10.8450    7.1380 C   0  0  0  0  0  1  0  0  0  0  0  0
    0.4590    9.9280    6.1940 C   0  0  0  0  0  2  0  0  0  0  0  0
  1  2  2  0  0  0  0
  1  3  1  0  0  0  0
  4  3  2  0  0  0  0
  4  5  1  0  0  0  0
  5 10  1  0  0  0  0
  6  7  1  0  0  0  0
  6  5  2  0  0  0  0
  7  8  2  0  0  0  0
  8 11  1  0  0  0  0
  8  9  1  0  0  0  0
 10  9  2  0  0  0  0
 11 12  1  0  0  0  0
 13  1  1  0  0  0  0
 14 15  1  6  0  0  0
 14 17  1  0  0  0  0
 14 13  1  0  0  0  0
 16 15  1  0  0  0  0
 17 18  1  0  0  0  0
 18 20  1  0  0  0  0
 20 19  1  0  0  0  0
M  END
>  <MODEL>
9

>  <REMARK>
 VINA RESULT:      -3.4      2.362      4.048
  Name = s3_orig_f12_ligand
  12 active torsions:
  status: ('A' for Active; 'I' for Inactive)
    1  A    between atoms: C_1  and  C_2
    2  A    between atoms: C_2  and  C_3
    3  A    between atoms: C_3  and  C_4
    4  A    between atoms: C_4  and  C_5
    5  A    between atoms: C_5  and  C_6
    6  A    between atoms: C_5  and  O_8
    7  A    between atoms: C_6  and  C_7
    8  A    between atoms: O_8  and  C_9
    9  A    between atoms: C_9  and  C_11
   10  A    between atoms: C_12  and  C_13
   11  A    between atoms: C_16  and  O_17
   12  A    between atoms: O_17  and  C_18
                            x       y       z     vdW  Elec       q    Type
                         _______ _______ _______ _____ _____    ______ ____

>  <TORSDO>
F 9

$$$$
