bgox31_5_ligand
 OpenBabel10092621253D

 18 19  0  0  0  0  0  0  0  0999 V2000
    5.4480   -5.6180   -7.2820 C   0  0  0  0  0  0  0  0  0  0  0  0
    5.2020   -4.2900   -7.1290 C   0  0  0  0  0  3  0  0  0  0  0  0
    5.7950   -3.5960   -6.0520 C   0  0  0  0  0  3  0  0  0  0  0  0
    6.6110   -4.2120   -5.1270 C   0  0  0  0  0  0  0  0  0  0  0  0
    6.8520   -5.5760   -5.2770 C   0  0  0  0  0  0  0  0  0  0  0  0
    6.2620   -6.2880   -6.3550 C   0  0  0  0  0  3  0  0  0  0  0  0
    4.6510   -5.4290   -9.6620 C   0  0  0  0  0  1  0  0  0  0  0  0
    4.7660   -6.1800   -8.4190 O   0  0  0  0  0  0  0  0  0  0  0  0
    7.1660   -3.4450   -4.0380 C   0  0  0  0  0  0  0  0  0  0  0  0
    8.3730   -3.5580   -3.7860 O   0  0  0  0  0  0  0  0  0  0  0  0
    6.2760   -2.6160   -3.1650 C   0  0  0  0  0  0  0  0  0  0  0  0
    5.0910   -3.0630   -2.6070 C   0  0  0  0  0  3  0  0  0  0  0  0
    4.2910   -2.2180   -1.7890 C   0  0  0  0  0  3  0  0  0  0  0  0
    4.6550   -0.9370   -1.5020 C   0  0  0  0  0  3  0  0  0  0  0  0
    5.8370   -0.4620   -2.0170 C   0  0  0  0  0  3  0  0  0  0  0  0
    6.6090   -1.2980   -2.8590 C   0  0  0  0  0  3  0  0  0  0  0  0
    7.6590   -6.2120   -4.3920 O   0  0  0  0  0  0  0  0  0  0  0  0
    7.3420   -6.3870   -3.4720 H   0  0  0  0  0  0  0  0  0  0  0  0
  1  2  2  0  0  0  0
  1  6  1  0  0  0  0
  2  3  1  0  0  0  0
  3  4  2  0  0  0  0
  4  9  1  0  0  0  0
  5  4  1  0  0  0  0
  5 17  1  0  0  0  0
  6  5  2  0  0  0  0
  7  8  1  0  0  0  0
  8  1  1  0  0  0  0
  9 10  2  0  0  0  0
  9 11  1  0  0  0  0
 11 16  2  0  0  0  0
 11 12  1  0  0  0  0
 12 13  2  0  0  0  0
 13 14  1  0  0  0  0
 15 14  2  0  0  0  0
 16 15  1  0  0  0  0
 17 18  1  0  0  0  0
M  END
>  <MODEL>
1

>  <REMARK>
 VINA RESULT:      -5.0      0.000      0.000
  Name = bgox31_5_ligand
  5 active torsions:
  status: ('A' for Active; 'I' for Inactive)
    1  A    between atoms: C_1  and  O_2
    2  A    between atoms: O_2  and  C_3
    3  A    between atoms: C_6  and  C_7
    4  A    between atoms: C_7  and  C_9
    5  A    between atoms: C_15  and  O_16
                            x       y       z     vdW  Elec       q    Type
                         _______ _______ _______ _____ _____    ______ ____

>  <TORSDO>
F 4

$$$$
bgox31_5_ligand
 OpenBabel10092621253D

 18 19  0  0  0  0  0  0  0  0999 V2000
    6.4820    0.5810   -1.7890 C   0  0  0  0  0  0  0  0  0  0  0  0
    7.4850   -0.1970   -2.2730 C   0  0  0  0  0  3  0  0  0  0  0  0
    7.2210   -1.5470   -2.5900 C   0  0  0  0  0  3  0  0  0  0  0  0
    5.9810   -2.1260   -2.4160 C   0  0  0  0  0  0  0  0  0  0  0  0
    4.9570   -1.3300   -1.9070 C   0  0  0  0  0  0  0  0  0  0  0  0
    5.2070    0.0300   -1.5830 C   0  0  0  0  0  3  0  0  0  0  0  0
    7.1120    2.8840   -2.5870 C   0  0  0  0  0  1  0  0  0  0  0  0
    6.9130    1.9260   -1.5070 O   0  0  0  0  0  0  0  0  0  0  0  0
    5.7880   -3.5180   -2.7410 C   0  0  0  0  0  0  0  0  0  0  0  0
    5.0580   -3.8090   -3.6970 O   0  0  0  0  0  0  0  0  0  0  0  0
    6.3710   -4.5870   -1.8700 C   0  0  0  0  0  0  0  0  0  0  0  0
    7.0120   -4.3520   -0.6660 C   0  0  0  0  0  3  0  0  0  0  0  0
    7.5480   -5.4170    0.1090 C   0  0  0  0  0  3  0  0  0  0  0  0
    7.4460   -6.7180   -0.2830 C   0  0  0  0  0  3  0  0  0  0  0  0
    6.7950   -6.9960   -1.4610 C   0  0  0  0  0  3  0  0  0  0  0  0
    6.2960   -5.9270   -2.2440 C   0  0  0  0  0  3  0  0  0  0  0  0
    3.7220   -1.8620   -1.7340 O   0  0  0  0  0  0  0  0  0  0  0  0
    3.6240   -2.8220   -1.5140 H   0  0  0  0  0  0  0  0  0  0  0  0
  1  6  1  0  0  0  0
  1  8  1  0  0  0  0
  2  1  2  0  0  0  0
  3  4  2  0  0  0  0
  3  2  1  0  0  0  0
  4  5  1  0  0  0  0
  5 17  1  0  0  0  0
  5  6  2  0  0  0  0
  7  8  1  0  0  0  0
  9  4  1  0  0  0  0
  9 11  1  0  0  0  0
 10  9  2  0  0  0  0
 11 12  1  0  0  0  0
 12 13  2  0  0  0  0
 14 13  1  0  0  0  0
 15 14  2  0  0  0  0
 16 11  2  0  0  0  0
 16 15  1  0  0  0  0
 17 18  1  0  0  0  0
M  END
>  <MODEL>
2

>  <REMARK>
 VINA RESULT:      -5.0      3.455      6.368
  Name = bgox31_5_ligand
  5 active torsions:
  status: ('A' for Active; 'I' for Inactive)
    1  A    between atoms: C_1  and  O_2
    2  A    between atoms: O_2  and  C_3
    3  A    between atoms: C_6  and  C_7
    4  A    between atoms: C_7  and  C_9
    5  A    between atoms: C_15  and  O_16
                            x       y       z     vdW  Elec       q    Type
                         _______ _______ _______ _____ _____    ______ ____

>  <TORSDO>
F 4

$$$$
bgox31_5_ligand
 OpenBabel10092621253D

 18 19  0  0  0  0  0  0  0  0999 V2000
    6.8290    0.0730   -1.5110 C   0  0  0  0  0  0  0  0  0  0  0  0
    7.6320   -0.8000   -2.1750 C   0  0  0  0  0  3  0  0  0  0  0  0
    7.0710   -1.9710   -2.7300 C   0  0  0  0  0  3  0  0  0  0  0  0
    5.7320   -2.2820   -2.6170 C   0  0  0  0  0  0  0  0  0  0  0  0
    4.9120   -1.3930   -1.9250 C   0  0  0  0  0  0  0  0  0  0  0  0
    5.4630   -0.2110   -1.3600 C   0  0  0  0  0  3  0  0  0  0  0  0
    7.3680    2.5300   -1.5810 C   0  0  0  0  0  1  0  0  0  0  0  0
    7.5520    1.2080   -0.9980 O   0  0  0  0  0  0  0  0  0  0  0  0
    5.2300   -3.5070   -3.1920 C   0  0  0  0  0  0  0  0  0  0  0  0
    4.3210   -4.1090   -2.6060 O   0  0  0  0  0  0  0  0  0  0  0  0
    5.8750   -4.0920   -4.4100 C   0  0  0  0  0  0  0  0  0  0  0  0
    5.7410   -3.5790   -5.6880 C   0  0  0  0  0  3  0  0  0  0  0  0
    6.3790   -4.1880   -6.8030 C   0  0  0  0  0  3  0  0  0  0  0  0
    7.1640   -5.2940   -6.6690 C   0  0  0  0  0  3  0  0  0  0  0  0
    7.3430   -5.8200   -5.4130 C   0  0  0  0  0  3  0  0  0  0  0  0
    6.6750   -5.2280   -4.3140 C   0  0  0  0  0  3  0  0  0  0  0  0
    3.5890   -1.6610   -1.8040 O   0  0  0  0  0  0  0  0  0  0  0  0
    3.1480   -1.5830   -0.9220 H   0  0  0  0  0  0  0  0  0  0  0  0
  1  6  1  0  0  0  0
  1  8  1  0  0  0  0
  2  1  2  0  0  0  0
  3  4  2  0  0  0  0
  3  2  1  0  0  0  0
  4  5  1  0  0  0  0
  5 17  1  0  0  0  0
  5  6  2  0  0  0  0
  7  8  1  0  0  0  0
  9  4  1  0  0  0  0
  9 10  2  0  0  0  0
 11 16  1  0  0  0  0
 11  9  1  0  0  0  0
 12 11  2  0  0  0  0
 13 14  2  0  0  0  0
 13 12  1  0  0  0  0
 14 15  1  0  0  0  0
 15 16  2  0  0  0  0
 17 18  1  0  0  0  0
M  END
>  <MODEL>
3

>  <REMARK>
 VINA RESULT:      -4.8      2.465      6.466
  Name = bgox31_5_ligand
  5 active torsions:
  status: ('A' for Active; 'I' for Inactive)
    1  A    between atoms: C_1  and  O_2
    2  A    between atoms: O_2  and  C_3
    3  A    between atoms: C_6  and  C_7
    4  A    between atoms: C_7  and  C_9
    5  A    between atoms: C_15  and  O_16
                            x       y       z     vdW  Elec       q    Type
                         _______ _______ _______ _____ _____    ______ ____

>  <TORSDO>
F 4

$$$$
bgox31_5_ligand
 OpenBabel10092621253D

 18 19  0  0  0  0  0  0  0  0999 V2000
    7.4040   -6.1910   -2.8610 C   0  0  0  0  0  0  0  0  0  0  0  0
    7.4200   -5.5730   -1.6510 C   0  0  0  0  0  3  0  0  0  0  0  0
    6.6870   -4.3790   -1.4750 C   0  0  0  0  0  3  0  0  0  0  0  0
    5.9580   -3.7950   -2.4900 C   0  0  0  0  0  0  0  0  0  0  0  0
    5.9540   -4.4220   -3.7330 C   0  0  0  0  0  0  0  0  0  0  0  0
    6.6870   -5.6240   -3.9260 C   0  0  0  0  0  3  0  0  0  0  0  0
    7.9940   -8.4060   -3.9000 C   0  0  0  0  0  1  0  0  0  0  0  0
    8.2060   -7.3880   -2.8810 O   0  0  0  0  0  0  0  0  0  0  0  0
    5.2490   -2.5610   -2.2450 C   0  0  0  0  0  0  0  0  0  0  0  0
    4.0170   -2.5960   -2.1410 O   0  0  0  0  0  0  0  0  0  0  0  0
    5.9830   -1.2570   -2.2270 C   0  0  0  0  0  0  0  0  0  0  0  0
    5.6000   -0.1530   -1.4850 C   0  0  0  0  0  3  0  0  0  0  0  0
    6.3430    1.0580   -1.5190 C   0  0  0  0  0  3  0  0  0  0  0  0
    7.4730    1.1910   -2.2690 C   0  0  0  0  0  3  0  0  0  0  0  0
    7.9020    0.1100   -3.0020 C   0  0  0  0  0  3  0  0  0  0  0  0
    7.1360   -1.0800   -2.9900 C   0  0  0  0  0  3  0  0  0  0  0  0
    5.2380   -3.8830   -4.7510 O   0  0  0  0  0  0  0  0  0  0  0  0
    4.2770   -4.0950   -4.8450 H   0  0  0  0  0  0  0  0  0  0  0  0
  1  2  1  0  0  0  0
  2  3  2  0  0  0  0
  4  9  1  0  0  0  0
  4  3  1  0  0  0  0
  5  4  2  0  0  0  0
  6  5  1  0  0  0  0
  6  1  2  0  0  0  0
  7  8  1  0  0  0  0
  8  1  1  0  0  0  0
  9 11  1  0  0  0  0
  9 10  2  0  0  0  0
 11 12  1  0  0  0  0
 13 12  2  0  0  0  0
 14 13  1  0  0  0  0
 15 16  1  0  0  0  0
 15 14  2  0  0  0  0
 16 11  2  0  0  0  0
 17  5  1  0  0  0  0
 18 17  1  0  0  0  0
M  END
>  <MODEL>
4

>  <REMARK>
 VINA RESULT:      -4.6      2.668      4.108
  Name = bgox31_5_ligand
  5 active torsions:
  status: ('A' for Active; 'I' for Inactive)
    1  A    between atoms: C_1  and  O_2
    2  A    between atoms: O_2  and  C_3
    3  A    between atoms: C_6  and  C_7
    4  A    between atoms: C_7  and  C_9
    5  A    between atoms: C_15  and  O_16
                            x       y       z     vdW  Elec       q    Type
                         _______ _______ _______ _____ _____    ______ ____

>  <TORSDO>
F 4

$$$$
bgox31_5_ligand
 OpenBabel10092621253D

 18 19  0  0  0  0  0  0  0  0999 V2000
    6.7190   -5.7250   -5.4900 C   0  0  0  0  0  0  0  0  0  0  0  0
    6.0980   -4.6030   -5.9410 C   0  0  0  0  0  3  0  0  0  0  0  0
    5.6280   -3.6520   -5.0090 C   0  0  0  0  0  3  0  0  0  0  0  0
    5.7570   -3.8150   -3.6460 C   0  0  0  0  0  0  0  0  0  0  0  0
    6.3810   -4.9720   -3.1850 C   0  0  0  0  0  0  0  0  0  0  0  0
    6.8600   -5.9380   -4.1100 C   0  0  0  0  0  3  0  0  0  0  0  0
    6.3090   -7.7360   -6.9470 C   0  0  0  0  0  1  0  0  0  0  0  0
    7.1300   -6.5970   -6.5600 O   0  0  0  0  0  0  0  0  0  0  0  0
    5.2330   -2.8110   -2.7520 C   0  0  0  0  0  0  0  0  0  0  0  0
    4.1310   -3.0040   -2.2220 O   0  0  0  0  0  0  0  0  0  0  0  0
    5.9590   -1.5160   -2.5590 C   0  0  0  0  0  0  0  0  0  0  0  0
    7.2290   -1.2520   -3.0420 C   0  0  0  0  0  3  0  0  0  0  0  0
    7.8620    0.0010   -2.8170 C   0  0  0  0  0  3  0  0  0  0  0  0
    7.2490    1.0070   -2.1310 C   0  0  0  0  0  3  0  0  0  0  0  0
    5.9780    0.7930   -1.6560 C   0  0  0  0  0  3  0  0  0  0  0  0
    5.3690   -0.4700   -1.8540 C   0  0  0  0  0  3  0  0  0  0  0  0
    6.5360   -5.1600   -1.8510 O   0  0  0  0  0  0  0  0  0  0  0  0
    5.7620   -5.0530   -1.2440 H   0  0  0  0  0  0  0  0  0  0  0  0
  1  6  1  0  0  0  0
  2  1  2  0  0  0  0
  2  3  1  0  0  0  0
  3  4  2  0  0  0  0
  4  5  1  0  0  0  0
  4  9  1  0  0  0  0
  5 17  1  0  0  0  0
  6  5  2  0  0  0  0
  7  8  1  0  0  0  0
  8  1  1  0  0  0  0
  9 11  1  0  0  0  0
  9 10  2  0  0  0  0
 11 16  1  0  0  0  0
 12 13  1  0  0  0  0
 12 11  2  0  0  0  0
 13 14  2  0  0  0  0
 14 15  1  0  0  0  0
 16 15  2  0  0  0  0
 17 18  1  0  0  0  0
M  END
>  <MODEL>
5

>  <REMARK>
 VINA RESULT:      -4.6      1.831      2.724
  Name = bgox31_5_ligand
  5 active torsions:
  status: ('A' for Active; 'I' for Inactive)
    1  A    between atoms: C_1  and  O_2
    2  A    between atoms: O_2  and  C_3
    3  A    between atoms: C_6  and  C_7
    4  A    between atoms: C_7  and  C_9
    5  A    between atoms: C_15  and  O_16
                            x       y       z     vdW  Elec       q    Type
                         _______ _______ _______ _____ _____    ______ ____

>  <TORSDO>
F 4

$$$$
bgox31_5_ligand
 OpenBabel10092621253D

 18 19  0  0  0  0  0  0  0  0999 V2000
    7.8500   -7.4230   -2.2870 C   0  0  0  0  0  0  0  0  0  0  0  0
    6.8010   -6.8680   -1.6250 C   0  0  0  0  0  3  0  0  0  0  0  0
    6.1370   -5.7580   -2.1890 C   0  0  0  0  0  3  0  0  0  0  0  0
    6.5160   -5.1920   -3.3880 C   0  0  0  0  0  0  0  0  0  0  0  0
    7.5990   -5.7540   -4.0600 C   0  0  0  0  0  0  0  0  0  0  0  0
    8.2780   -6.8720   -3.5050 C   0  0  0  0  0  3  0  0  0  0  0  0
    8.9170   -9.7030   -2.3020 C   0  0  0  0  0  1  0  0  0  0  0  0
    8.4240   -8.5390   -1.5790 O   0  0  0  0  0  0  0  0  0  0  0  0
    5.8040   -4.0440   -3.8950 C   0  0  0  0  0  0  0  0  0  0  0  0
    5.4510   -4.0400   -5.0810 O   0  0  0  0  0  0  0  0  0  0  0  0
    5.5980   -2.8390   -3.0310 C   0  0  0  0  0  0  0  0  0  0  0  0
    4.5150   -2.6570   -2.1880 C   0  0  0  0  0  3  0  0  0  0  0  0
    4.3790   -1.4830   -1.3970 C   0  0  0  0  0  3  0  0  0  0  0  0
    5.3110   -0.4890   -1.4160 C   0  0  0  0  0  3  0  0  0  0  0  0
    6.4140   -0.6420   -2.2210 C   0  0  0  0  0  3  0  0  0  0  0  0
    6.5220   -1.7970   -3.0320 C   0  0  0  0  0  3  0  0  0  0  0  0
    7.9910   -5.2320   -5.2480 O   0  0  0  0  0  0  0  0  0  0  0  0
    7.4450   -4.5310   -5.6840 H   0  0  0  0  0  0  0  0  0  0  0  0
  1  2  1  0  0  0  0
  1  8  1  0  0  0  0
  3  2  2  0  0  0  0
  4  3  1  0  0  0  0
  5  6  1  0  0  0  0
  5  4  2  0  0  0  0
  6  1  2  0  0  0  0
  7  8  1  0  0  0  0
  9  4  1  0  0  0  0
  9 11  1  0  0  0  0
 10  9  2  0  0  0  0
 11 12  1  0  0  0  0
 12 13  2  0  0  0  0
 14 13  1  0  0  0  0
 15 14  2  0  0  0  0
 16 11  2  0  0  0  0
 16 15  1  0  0  0  0
 17  5  1  0  0  0  0
 18 17  1  0  0  0  0
M  END
>  <MODEL>
6

>  <REMARK>
 VINA RESULT:      -4.6      2.548      4.101
  Name = bgox31_5_ligand
  5 active torsions:
  status: ('A' for Active; 'I' for Inactive)
    1  A    between atoms: C_1  and  O_2
    2  A    between atoms: O_2  and  C_3
    3  A    between atoms: C_6  and  C_7
    4  A    between atoms: C_7  and  C_9
    5  A    between atoms: C_15  and  O_16
                            x       y       z     vdW  Elec       q    Type
                         _______ _______ _______ _____ _____    ______ ____

>  <TORSDO>
F 4

$$$$
bgox31_5_ligand
 OpenBabel10092621253D

 18 19  0  0  0  0  0  0  0  0999 V2000
    7.4360   -6.3740   -3.6420 C   0  0  0  0  0  0  0  0  0  0  0  0
    7.4120   -5.9620   -2.3470 C   0  0  0  0  0  3  0  0  0  0  0  0
    6.6670   -4.8140   -2.0000 C   0  0  0  0  0  3  0  0  0  0  0  0
    5.9660   -4.0720   -2.9280 C   0  0  0  0  0  0  0  0  0  0  0  0
    6.0010   -4.4880   -4.2560 C   0  0  0  0  0  0  0  0  0  0  0  0
    6.7470   -5.6410   -4.6210 C   0  0  0  0  0  3  0  0  0  0  0  0
    8.4590   -8.4890   -2.7390 C   0  0  0  0  0  1  0  0  0  0  0  0
    8.2440   -7.5510   -3.8330 O   0  0  0  0  0  0  0  0  0  0  0  0
    5.2430   -2.8960   -2.5050 C   0  0  0  0  0  0  0  0  0  0  0  0
    4.0200   -2.9800   -2.3350 O   0  0  0  0  0  0  0  0  0  0  0  0
    5.9450   -1.5790   -2.3850 C   0  0  0  0  0  0  0  0  0  0  0  0
    7.1320   -1.2640   -3.0220 C   0  0  0  0  0  3  0  0  0  0  0  0
    7.7470    0.0080   -2.8590 C   0  0  0  0  0  3  0  0  0  0  0  0
    7.1940    0.9820   -2.0830 C   0  0  0  0  0  3  0  0  0  0  0  0
    6.0030    0.7180   -1.4520 C   0  0  0  0  0  3  0  0  0  0  0  0
    5.4160   -0.5630   -1.5920 C   0  0  0  0  0  3  0  0  0  0  0  0
    5.3140   -3.7890   -5.1930 O   0  0  0  0  0  0  0  0  0  0  0  0
    4.3390   -3.6540   -5.0910 H   0  0  0  0  0  0  0  0  0  0  0  0
  1  2  1  0  0  0  0
  2  3  2  0  0  0  0
  4  9  1  0  0  0  0
  4  3  1  0  0  0  0
  5  4  2  0  0  0  0
  6  5  1  0  0  0  0
  6  1  2  0  0  0  0
  8  1  1  0  0  0  0
  8  7  1  0  0  0  0
  9 11  1  0  0  0  0
  9 10  2  0  0  0  0
 11 16  1  0  0  0  0
 12 13  1  0  0  0  0
 12 11  2  0  0  0  0
 13 14  2  0  0  0  0
 14 15  1  0  0  0  0
 16 15  2  0  0  0  0
 17 18  1  0  0  0  0
 17  5  1  0  0  0  0
M  END
>  <MODEL>
7

>  <REMARK>
 VINA RESULT:      -4.6      2.359      3.975
  Name = bgox31_5_ligand
  5 active torsions:
  status: ('A' for Active; 'I' for Inactive)
    1  A    between atoms: C_1  and  O_2
    2  A    between atoms: O_2  and  C_3
    3  A    between atoms: C_6  and  C_7
    4  A    between atoms: C_7  and  C_9
    5  A    between atoms: C_15  and  O_16
                            x       y       z     vdW  Elec       q    Type
                         _______ _______ _______ _____ _____    ______ ____

>  <TORSDO>
F 4

$$$$
bgox31_5_ligand
 OpenBabel10092621253D

 18 19  0  0  0  0  0  0  0  0999 V2000
    6.0450   -1.8530   -1.5670 C   0  0  0  0  0  0  0  0  0  0  0  0
    5.1610   -0.8660   -1.8730 C   0  0  0  0  0  3  0  0  0  0  0  0
    5.6030    0.4750   -1.8970 C   0  0  0  0  0  3  0  0  0  0  0  0
    6.9020    0.8370   -1.6070 C   0  0  0  0  0  0  0  0  0  0  0  0
    7.8030   -0.1730   -1.2810 C   0  0  0  0  0  0  0  0  0  0  0  0
    7.3740   -1.5270   -1.2520 C   0  0  0  0  0  3  0  0  0  0  0  0
    4.8880   -3.7140   -2.8050 C   0  0  0  0  0  1  0  0  0  0  0  0
    5.4400   -3.1590   -1.5760 O   0  0  0  0  0  0  0  0  0  0  0  0
    7.2780    2.2300   -1.6300 C   0  0  0  0  0  0  0  0  0  0  0  0
    7.5560    2.7880   -0.5610 O   0  0  0  0  0  0  0  0  0  0  0  0
    7.2240    3.0080   -2.9080 C   0  0  0  0  0  0  0  0  0  0  0  0
    6.1970    3.8670   -3.2590 C   0  0  0  0  0  3  0  0  0  0  0  0
    6.2080    4.5710   -4.4940 C   0  0  0  0  0  3  0  0  0  0  0  0
    7.2320    4.4500   -5.3850 C   0  0  0  0  0  3  0  0  0  0  0  0
    8.2830    3.6260   -5.0640 C   0  0  0  0  0  3  0  0  0  0  0  0
    8.2470    2.9010   -3.8480 C   0  0  0  0  0  3  0  0  0  0  0  0
    9.0910    0.1460   -1.0020 O   0  0  0  0  0  0  0  0  0  0  0  0
    9.3250    1.0700   -0.7380 H   0  0  0  0  0  0  0  0  0  0  0  0
  1  6  1  0  0  0  0
  2  1  2  0  0  0  0
  3  2  1  0  0  0  0
  3  4  2  0  0  0  0
  4  5  1  0  0  0  0
  5  6  2  0  0  0  0
  5 17  1  0  0  0  0
  7  8  1  0  0  0  0
  8  1  1  0  0  0  0
  9  4  1  0  0  0  0
  9 10  2  0  0  0  0
 11  9  1  0  0  0  0
 12 11  1  0  0  0  0
 13 12  2  0  0  0  0
 14 15  2  0  0  0  0
 14 13  1  0  0  0  0
 15 16  1  0  0  0  0
 16 11  2  0  0  0  0
 17 18  1  0  0  0  0
M  END
>  <MODEL>
8

>  <REMARK>
 VINA RESULT:      -4.5      3.969      6.631
  Name = bgox31_5_ligand
  5 active torsions:
  status: ('A' for Active; 'I' for Inactive)
    1  A    between atoms: C_1  and  O_2
    2  A    between atoms: O_2  and  C_3
    3  A    between atoms: C_6  and  C_7
    4  A    between atoms: C_7  and  C_9
    5  A    between atoms: C_15  and  O_16
                            x       y       z     vdW  Elec       q    Type
                         _______ _______ _______ _____ _____    ______ ____

>  <TORSDO>
F 4

$$$$
bgox31_5_ligand
 OpenBabel10092621253D

 18 19  0  0  0  0  0  0  0  0999 V2000
    7.4380   -6.1780   -0.2400 C   0  0  0  0  0  0  0  0  0  0  0  0
    6.7680   -6.6970   -1.3020 C   0  0  0  0  0  3  0  0  0  0  0  0
    6.1440   -5.8230   -2.2190 C   0  0  0  0  0  3  0  0  0  0  0  0
    6.1700   -4.4510   -2.0780 C   0  0  0  0  0  0  0  0  0  0  0  0
    6.8460   -3.9220   -0.9820 C   0  0  0  0  0  0  0  0  0  0  0  0
    7.4790   -4.7880   -0.0510 C   0  0  0  0  0  3  0  0  0  0  0  0
    8.0350   -8.5880    0.1750 C   0  0  0  0  0  1  0  0  0  0  0  0
    8.0090   -7.1960    0.6040 O   0  0  0  0  0  0  0  0  0  0  0  0
    5.4920   -3.6200   -3.0430 C   0  0  0  0  0  0  0  0  0  0  0  0
    4.3840   -3.1530   -2.7500 O   0  0  0  0  0  0  0  0  0  0  0  0
    6.0700   -3.4200   -4.4100 C   0  0  0  0  0  0  0  0  0  0  0  0
    5.6770   -4.1240   -5.5350 C   0  0  0  0  0  3  0  0  0  0  0  0
    6.2730   -3.8850   -6.8040 C   0  0  0  0  0  3  0  0  0  0  0  0
    7.2460   -2.9470   -6.9800 C   0  0  0  0  0  3  0  0  0  0  0  0
    7.6470   -2.2100   -5.8920 C   0  0  0  0  0  3  0  0  0  0  0  0
    7.0730   -2.4790   -4.6260 C   0  0  0  0  0  3  0  0  0  0  0  0
    6.9030   -2.5770   -0.8190 O   0  0  0  0  0  0  0  0  0  0  0  0
    6.2000   -2.0020   -1.2110 H   0  0  0  0  0  0  0  0  0  0  0  0
  1  6  1  0  0  0  0
  1  8  1  0  0  0  0
  2  1  2  0  0  0  0
  3  4  2  0  0  0  0
  3  2  1  0  0  0  0
  4  5  1  0  0  0  0
  5 17  1  0  0  0  0
  5  6  2  0  0  0  0
  7  8  1  0  0  0  0
  9 10  2  0  0  0  0
  9  4  1  0  0  0  0
 11  9  1  0  0  0  0
 12 11  2  0  0  0  0
 13 12  1  0  0  0  0
 14 13  2  0  0  0  0
 14 15  1  0  0  0  0
 15 16  2  0  0  0  0
 16 11  1  0  0  0  0
 18 17  1  0  0  0  0
M  END
>  <MODEL>
9

>  <REMARK>
 VINA RESULT:      -4.4      3.258      5.738
  Name = bgox31_5_ligand
  5 active torsions:
  status: ('A' for Active; 'I' for Inactive)
    1  A    between atoms: C_1  and  O_2
    2  A    between atoms: O_2  and  C_3
    3  A    between atoms: C_6  and  C_7
    4  A    between atoms: C_7  and  C_9
    5  A    between atoms: C_15  and  O_16
                            x       y       z     vdW  Elec       q    Type
                         _______ _______ _______ _____ _____    ______ ____

>  <TORSDO>
F 4

$$$$
