bgox31_2_ligand
 OpenBabel10092621233D

 18 19  0  0  0  0  0  0  0  0999 V2000
   -1.8680   -3.5170    0.9310 C   0  0  0  0  0  0  0  0  0  0  0  0
   -1.6390   -3.4450    2.3080 C   0  0  0  0  0  3  0  0  0  0  0  0
   -1.1960   -4.5480    2.9930 C   0  0  0  0  0  3  0  0  0  0  0  0
   -0.9790   -5.7040    2.2950 C   0  0  0  0  0  0  0  0  0  0  0  0
   -1.1580   -5.7720    0.9230 C   0  0  0  0  0  0  0  0  0  0  0  0
   -1.5930   -4.6690    0.2550 C   0  0  0  0  0  3  0  0  0  0  0  0
   -3.7370   -2.2610    0.3000 C   0  0  0  0  0  1  0  0  0  0  0  0
   -2.3410   -2.4350    0.3000 O   0  0  0  0  0  0  0  0  0  0  0  0
   -0.5260   -6.9090    3.0690 C   0  0  0  0  0  0  0  0  0  0  0  0
   -1.0360   -7.9640    2.8150 O   0  0  0  0  0  0  0  0  0  0  0  0
    0.5640   -6.8520    3.9990 C   0  0  0  0  0  0  0  0  0  0  0  0
    0.3880   -7.4950    5.2030 C   0  0  0  0  0  3  0  0  0  0  0  0
    1.3880   -7.4080    6.1460 C   0  0  0  0  0  3  0  0  0  0  0  0
    2.5270   -6.6990    5.8490 C   0  0  0  0  0  3  0  0  0  0  0  0
    2.6800   -6.0740    4.7070 C   0  0  0  0  0  3  0  0  0  0  0  0
    1.6860   -6.1660    3.7570 C   0  0  0  0  0  3  0  0  0  0  0  0
   -0.8610   -6.9210    0.2970 O   0  0  0  0  0  0  0  0  0  0  0  0
    0.0600   -7.0850   -0.0260 H   0  0  0  0  0  0  0  0  0  0  0  0
  1  2  1  0  0  0  0
  2  3  2  0  0  0  0
  4  3  1  0  0  0  0
  4  9  1  0  0  0  0
  5  4  2  0  0  0  0
  6  5  1  0  0  0  0
  6  1  2  0  0  0  0
  7  8  1  0  0  0  0
  8  1  1  0  0  0  0
  9 11  1  0  0  0  0
 10  9  2  0  0  0  0
 11 12  1  0  0  0  0
 12 13  2  0  0  0  0
 14 13  1  0  0  0  0
 15 14  2  0  0  0  0
 16 11  2  0  0  0  0
 16 15  1  0  0  0  0
 17  5  1  0  0  0  0
 18 17  1  0  0  0  0
M  END
>  <MODEL>
1

>  <REMARK>
 VINA RESULT:      -4.8      0.000      0.000
  Name = bgox31_2_ligand
  5 active torsions:
  status: ('A' for Active; 'I' for Inactive)
    1  A    between atoms: C_1  and  O_2
    2  A    between atoms: O_2  and  C_3
    3  A    between atoms: C_6  and  C_7
    4  A    between atoms: C_7  and  C_9
    5  A    between atoms: C_15  and  O_16
                            x       y       z     vdW  Elec       q    Type
                         _______ _______ _______ _____ _____    ______ ____

>  <TORSDO>
F 4

$$$$
bgox31_2_ligand
 OpenBabel10092621233D

 18 19  0  0  0  0  0  0  0  0999 V2000
    2.3870   -6.6980    5.9950 C   0  0  0  0  0  0  0  0  0  0  0  0
    2.6370   -6.0050    4.8070 C   0  0  0  0  0  3  0  0  0  0  0  0
    1.7530   -6.0870    3.7610 C   0  0  0  0  0  3  0  0  0  0  0  0
    0.6280   -6.8490    3.9170 C   0  0  0  0  0  0  0  0  0  0  0  0
    0.3480   -7.5010    5.1060 C   0  0  0  0  0  0  0  0  0  0  0  0
    1.2320   -7.4090    6.1380 C   0  0  0  0  0  3  0  0  0  0  0  0
    4.2750   -7.6380    7.0060 C   0  0  0  0  0  1  0  0  0  0  0  0
    3.2910   -6.6330    6.9800 O   0  0  0  0  0  0  0  0  0  0  0  0
   -0.3110   -6.9510    2.7490 C   0  0  0  0  0  0  0  0  0  0  0  0
   -0.6530   -8.0450    2.3980 O   0  0  0  0  0  0  0  0  0  0  0  0
   -0.8900   -5.7930    2.1330 C   0  0  0  0  0  0  0  0  0  0  0  0
   -1.1960   -5.8870    0.7950 C   0  0  0  0  0  3  0  0  0  0  0  0
   -1.6950   -4.7740    0.1550 C   0  0  0  0  0  3  0  0  0  0  0  0
   -1.8830   -3.6180    0.8740 C   0  0  0  0  0  3  0  0  0  0  0  0
   -1.5740   -3.5300    2.1440 C   0  0  0  0  0  3  0  0  0  0  0  0
   -1.0830   -4.6440    2.7910 C   0  0  0  0  0  3  0  0  0  0  0  0
   -0.8070   -8.1760    5.2090 O   0  0  0  0  0  0  0  0  0  0  0  0
   -1.5940   -7.8930    4.6800 H   0  0  0  0  0  0  0  0  0  0  0  0
  1  6  1  0  0  0  0
  1  8  1  0  0  0  0
  2  1  2  0  0  0  0
  3  4  2  0  0  0  0
  3  2  1  0  0  0  0
  4  5  1  0  0  0  0
  5 17  1  0  0  0  0
  5  6  2  0  0  0  0
  8  7  1  0  0  0  0
  9  4  1  0  0  0  0
 10  9  2  0  0  0  0
 11  9  1  0  0  0  0
 11 16  1  0  0  0  0
 12 11  2  0  0  0  0
 13 12  1  0  0  0  0
 13 14  2  0  0  0  0
 14 15  1  0  0  0  0
 15 16  2  0  0  0  0
 18 17  1  0  0  0  0
M  END
>  <MODEL>
2

>  <REMARK>
 VINA RESULT:      -4.6      1.730      6.008
  Name = bgox31_2_ligand
  5 active torsions:
  status: ('A' for Active; 'I' for Inactive)
    1  A    between atoms: C_1  and  O_2
    2  A    between atoms: O_2  and  C_3
    3  A    between atoms: C_6  and  C_7
    4  A    between atoms: C_7  and  C_9
    5  A    between atoms: C_15  and  O_16
                            x       y       z     vdW  Elec       q    Type
                         _______ _______ _______ _____ _____    ______ ____

>  <TORSDO>
F 4

$$$$
bgox31_2_ligand
 OpenBabel10092621233D

 18 19  0  0  0  0  0  0  0  0999 V2000
    1.7720   -7.0930    7.3000 C   0  0  0  0  0  0  0  0  0  0  0  0
    0.6860   -7.8110    6.7910 C   0  0  0  0  0  3  0  0  0  0  0  0
    0.4260   -7.8060    5.4430 C   0  0  0  0  0  3  0  0  0  0  0  0
    1.2560   -7.0940    4.6230 C   0  0  0  0  0  0  0  0  0  0  0  0
    2.3620   -6.4180    5.1110 C   0  0  0  0  0  0  0  0  0  0  0  0
    2.6120   -6.4340    6.4500 C   0  0  0  0  0  3  0  0  0  0  0  0
    1.1130   -6.2740    9.3890 C   0  0  0  0  0  1  0  0  0  0  0  0
    1.9730   -7.0820    8.6230 O   0  0  0  0  0  0  0  0  0  0  0  0
    0.9350   -7.0760    3.1550 C   0  0  0  0  0  0  0  0  0  0  0  0
    1.4940   -7.8670    2.4480 O   0  0  0  0  0  0  0  0  0  0  0  0
   -0.0900   -6.2350    2.6090 C   0  0  0  0  0  0  0  0  0  0  0  0
   -0.7790   -6.7210    1.5220 C   0  0  0  0  0  3  0  0  0  0  0  0
   -1.7280   -5.9150    0.9310 C   0  0  0  0  0  3  0  0  0  0  0  0
   -1.9630   -4.6670    1.4540 C   0  0  0  0  0  3  0  0  0  0  0  0
   -1.2900   -4.2030    2.4800 C   0  0  0  0  0  3  0  0  0  0  0  0
   -0.3480   -5.0100    3.0790 C   0  0  0  0  0  3  0  0  0  0  0  0
    3.1690   -5.7970    4.2380 O   0  0  0  0  0  0  0  0  0  0  0  0
    3.7500   -5.0550    4.5410 H   0  0  0  0  0  0  0  0  0  0  0  0
  1  8  1  0  0  0  0
  2  1  1  0  0  0  0
  3  2  2  0  0  0  0
  4  5  2  0  0  0  0
  4  3  1  0  0  0  0
  5  6  1  0  0  0  0
  6  1  2  0  0  0  0
  8  7  1  0  0  0  0
  9  4  1  0  0  0  0
 10  9  2  0  0  0  0
 11 16  1  0  0  0  0
 11  9  1  0  0  0  0
 12 11  2  0  0  0  0
 13 14  2  0  0  0  0
 13 12  1  0  0  0  0
 14 15  1  0  0  0  0
 15 16  2  0  0  0  0
 17 18  1  0  0  0  0
 17  5  1  0  0  0  0
M  END
>  <MODEL>
3

>  <REMARK>
 VINA RESULT:      -4.5      2.393      6.121
  Name = bgox31_2_ligand
  5 active torsions:
  status: ('A' for Active; 'I' for Inactive)
    1  A    between atoms: C_1  and  O_2
    2  A    between atoms: O_2  and  C_3
    3  A    between atoms: C_6  and  C_7
    4  A    between atoms: C_7  and  C_9
    5  A    between atoms: C_15  and  O_16
                            x       y       z     vdW  Elec       q    Type
                         _______ _______ _______ _____ _____    ______ ____

>  <TORSDO>
F 4

$$$$
bgox31_2_ligand
 OpenBabel10092621233D

 18 19  0  0  0  0  0  0  0  0999 V2000
    1.6270   -3.0780   -8.7480 C   0  0  0  0  0  0  0  0  0  0  0  0
    0.6290   -3.7930   -9.4170 C   0  0  0  0  0  3  0  0  0  0  0  0
   -0.4100   -4.3490   -8.7140 C   0  0  0  0  0  3  0  0  0  0  0  0
   -0.4440   -4.1780   -7.3580 C   0  0  0  0  0  0  0  0  0  0  0  0
    0.5140   -3.4320   -6.6920 C   0  0  0  0  0  0  0  0  0  0  0  0
    1.5380   -2.8810   -7.4020 C   0  0  0  0  0  3  0  0  0  0  0  0
    2.6480   -1.1990   -9.6960 C   0  0  0  0  0  1  0  0  0  0  0  0
    2.6500   -2.5860   -9.4580 O   0  0  0  0  0  0  0  0  0  0  0  0
   -1.5720   -4.8230   -6.6040 C   0  0  0  0  0  0  0  0  0  0  0  0
   -1.2940   -5.5470   -5.6890 O   0  0  0  0  0  0  0  0  0  0  0  0
   -2.9450   -4.5050   -6.8670 C   0  0  0  0  0  0  0  0  0  0  0  0
   -3.8940   -5.2910   -6.2540 C   0  0  0  0  0  3  0  0  0  0  0  0
   -5.2220   -5.0560   -6.5350 C   0  0  0  0  0  3  0  0  0  0  0  0
   -5.5530   -4.0420   -7.4000 C   0  0  0  0  0  3  0  0  0  0  0  0
   -4.6440   -3.3090   -7.9940 C   0  0  0  0  0  3  0  0  0  0  0  0
   -3.3140   -3.5340   -7.7090 C   0  0  0  0  0  3  0  0  0  0  0  0
    0.3790   -3.2510   -5.3700 O   0  0  0  0  0  0  0  0  0  0  0  0
    1.1440   -3.4200   -4.7660 H   0  0  0  0  0  0  0  0  0  0  0  0
  1  6  1  0  0  0  0
  2  1  2  0  0  0  0
  2  3  1  0  0  0  0
  3  4  2  0  0  0  0
  4  5  1  0  0  0  0
  4  9  1  0  0  0  0
  5 17  1  0  0  0  0
  6  5  2  0  0  0  0
  7  8  1  0  0  0  0
  8  1  1  0  0  0  0
  9 10  2  0  0  0  0
 11  9  1  0  0  0  0
 11 12  1  0  0  0  0
 13 12  2  0  0  0  0
 14 13  1  0  0  0  0
 15 16  1  0  0  0  0
 15 14  2  0  0  0  0
 16 11  2  0  0  0  0
 17 18  1  0  0  0  0
M  END
>  <MODEL>
4

>  <REMARK>
 VINA RESULT:      -4.3      9.719     11.481
  Name = bgox31_2_ligand
  5 active torsions:
  status: ('A' for Active; 'I' for Inactive)
    1  A    between atoms: C_1  and  O_2
    2  A    between atoms: O_2  and  C_3
    3  A    between atoms: C_6  and  C_7
    4  A    between atoms: C_7  and  C_9
    5  A    between atoms: C_15  and  O_16
                            x       y       z     vdW  Elec       q    Type
                         _______ _______ _______ _____ _____    ______ ____

>  <TORSDO>
F 4

$$$$
bgox31_2_ligand
 OpenBabel10092621233D

 18 19  0  0  0  0  0  0  0  0999 V2000
   -1.4200   -6.0390    1.5540 C   0  0  0  0  0  0  0  0  0  0  0  0
   -0.8300   -5.1760    2.4820 C   0  0  0  0  0  3  0  0  0  0  0  0
    0.2690   -5.5800    3.1980 C   0  0  0  0  0  3  0  0  0  0  0  0
    0.7690   -6.8320    2.9720 C   0  0  0  0  0  0  0  0  0  0  0  0
    0.2220   -7.6760    2.0210 C   0  0  0  0  0  0  0  0  0  0  0  0
   -0.8660   -7.2630    1.3140 C   0  0  0  0  0  3  0  0  0  0  0  0
   -2.4240   -5.5300   -0.4960 C   0  0  0  0  0  1  0  0  0  0  0  0
   -2.5170   -5.6320    0.9040 O   0  0  0  0  0  0  0  0  0  0  0  0
    1.9530   -7.2660    3.7890 C   0  0  0  0  0  0  0  0  0  0  0  0
    2.9570   -7.5670    3.2070 O   0  0  0  0  0  0  0  0  0  0  0  0
    1.9510   -7.2140    5.2220 C   0  0  0  0  0  0  0  0  0  0  0  0
    0.8910   -7.8100    5.8640 C   0  0  0  0  0  3  0  0  0  0  0  0
    0.8220   -7.7250    7.2380 C   0  0  0  0  0  3  0  0  0  0  0  0
    1.8170   -7.0640    7.9160 C   0  0  0  0  0  3  0  0  0  0  0  0
    2.8160   -6.4830    7.2970 C   0  0  0  0  0  3  0  0  0  0  0  0
    2.8930   -6.5740    5.9240 C   0  0  0  0  0  3  0  0  0  0  0  0
    0.8070   -8.8640    1.8070 O   0  0  0  0  0  0  0  0  0  0  0  0
    0.5840   -9.3880    0.9970 H   0  0  0  0  0  0  0  0  0  0  0  0
  1  2  1  0  0  0  0
  2  3  2  0  0  0  0
  4  3  1  0  0  0  0
  4  9  1  0  0  0  0
  5  4  2  0  0  0  0
  6  1  2  0  0  0  0
  6  5  1  0  0  0  0
  7  8  1  0  0  0  0
  8  1  1  0  0  0  0
  9 11  1  0  0  0  0
 10  9  2  0  0  0  0
 11 12  2  0  0  0  0
 11 16  1  0  0  0  0
 12 13  1  0  0  0  0
 13 14  2  0  0  0  0
 15 14  1  0  0  0  0
 16 15  2  0  0  0  0
 17  5  1  0  0  0  0
 18 17  1  0  0  0  0
M  END
>  <MODEL>
5

>  <REMARK>
 VINA RESULT:      -4.2      1.791      2.583
  Name = bgox31_2_ligand
  5 active torsions:
  status: ('A' for Active; 'I' for Inactive)
    1  A    between atoms: C_1  and  O_2
    2  A    between atoms: O_2  and  C_3
    3  A    between atoms: C_6  and  C_7
    4  A    between atoms: C_7  and  C_9
    5  A    between atoms: C_15  and  O_16
                            x       y       z     vdW  Elec       q    Type
                         _______ _______ _______ _____ _____    ______ ____

>  <TORSDO>
F 4

$$$$
bgox31_2_ligand
 OpenBabel10092621233D

 18 19  0  0  0  0  0  0  0  0999 V2000
   -2.5800   -3.1310    0.8670 C   0  0  0  0  0  0  0  0  0  0  0  0
   -1.6380   -3.9790    0.2770 C   0  0  0  0  0  3  0  0  0  0  0  0
   -1.1740   -5.0750    0.9600 C   0  0  0  0  0  3  0  0  0  0  0  0
   -1.6600   -5.3140    2.2160 C   0  0  0  0  0  0  0  0  0  0  0  0
   -2.6280   -4.5070    2.7900 C   0  0  0  0  0  0  0  0  0  0  0  0
   -3.0840   -3.4250    2.1000 C   0  0  0  0  0  3  0  0  0  0  0  0
   -4.3560   -1.7530    0.2190 C   0  0  0  0  0  1  0  0  0  0  0  0
   -2.9800   -2.0460    0.1920 O   0  0  0  0  0  0  0  0  0  0  0  0
   -1.1140   -6.5010    2.9580 C   0  0  0  0  0  0  0  0  0  0  0  0
   -1.8840   -7.3580    3.2890 O   0  0  0  0  0  0  0  0  0  0  0  0
    0.2910   -6.6870    3.1700 C   0  0  0  0  0  0  0  0  0  0  0  0
    0.8630   -7.8050    2.6070 C   0  0  0  0  0  3  0  0  0  0  0  0
    2.1970   -8.0500    2.8430 C   0  0  0  0  0  3  0  0  0  0  0  0
    2.9120   -7.1680    3.6170 C   0  0  0  0  0  3  0  0  0  0  0  0
    2.3580   -6.1150    4.1650 C   0  0  0  0  0  3  0  0  0  0  0  0
    1.0250   -5.8600    3.9240 C   0  0  0  0  0  3  0  0  0  0  0  0
   -3.1060   -4.8420    3.9970 O   0  0  0  0  0  0  0  0  0  0  0  0
   -4.0480   -4.6460    4.2290 H   0  0  0  0  0  0  0  0  0  0  0  0
  1  6  1  0  0  0  0
  2  1  2  0  0  0  0
  2  3  1  0  0  0  0
  3  4  2  0  0  0  0
  4  5  1  0  0  0  0
  4  9  1  0  0  0  0
  5 17  1  0  0  0  0
  6  5  2  0  0  0  0
  8  7  1  0  0  0  0
  8  1  1  0  0  0  0
  9 11  1  0  0  0  0
  9 10  2  0  0  0  0
 11 16  1  0  0  0  0
 12 13  1  0  0  0  0
 12 11  2  0  0  0  0
 13 14  2  0  0  0  0
 14 15  1  0  0  0  0
 16 15  2  0  0  0  0
 17 18  1  0  0  0  0
M  END
>  <MODEL>
6

>  <REMARK>
 VINA RESULT:      -4.1      1.469      2.125
  Name = bgox31_2_ligand
  5 active torsions:
  status: ('A' for Active; 'I' for Inactive)
    1  A    between atoms: C_1  and  O_2
    2  A    between atoms: O_2  and  C_3
    3  A    between atoms: C_6  and  C_7
    4  A    between atoms: C_7  and  C_9
    5  A    between atoms: C_15  and  O_16
                            x       y       z     vdW  Elec       q    Type
                         _______ _______ _______ _____ _____    ______ ____

>  <TORSDO>
F 4

$$$$
bgox31_2_ligand
 OpenBabel10092621233D

 18 19  0  0  0  0  0  0  0  0999 V2000
   -2.2330   -6.6200    3.2560 C   0  0  0  0  0  0  0  0  0  0  0  0
   -2.9360   -5.4870    3.6760 C   0  0  0  0  0  3  0  0  0  0  0  0
   -3.0110   -4.3820    2.8660 C   0  0  0  0  0  3  0  0  0  0  0  0
   -2.3940   -4.4250    1.6470 C   0  0  0  0  0  0  0  0  0  0  0  0
   -1.7360   -5.5590    1.2020 C   0  0  0  0  0  0  0  0  0  0  0  0
   -1.6720   -6.6510    2.0130 C   0  0  0  0  0  3  0  0  0  0  0  0
   -0.8750   -7.9270    4.6410 C   0  0  0  0  0  1  0  0  0  0  0  0
   -2.1420   -7.6650    4.0880 O   0  0  0  0  0  0  0  0  0  0  0  0
   -2.4610   -3.1930    0.7900 C   0  0  0  0  0  0  0  0  0  0  0  0
   -1.4330   -2.6350    0.5280 O   0  0  0  0  0  0  0  0  0  0  0  0
   -3.6850   -2.7470    0.1900 C   0  0  0  0  0  0  0  0  0  0  0  0
   -3.9820   -1.4090    0.3040 C   0  0  0  0  0  3  0  0  0  0  0  0
   -5.1790   -0.9560   -0.2040 C   0  0  0  0  0  3  0  0  0  0  0  0
   -6.0250   -1.8480   -0.8170 C   0  0  0  0  0  3  0  0  0  0  0  0
   -5.7440   -3.1250   -0.9070 C   0  0  0  0  0  3  0  0  0  0  0  0
   -4.5430   -3.5810   -0.4080 C   0  0  0  0  0  3  0  0  0  0  0  0
   -1.2110   -5.5510   -0.0330 O   0  0  0  0  0  0  0  0  0  0  0  0
   -1.2800   -6.3550   -0.6060 H   0  0  0  0  0  0  0  0  0  0  0  0
  1  2  1  0  0  0  0
  1  8  1  0  0  0  0
  3  2  2  0  0  0  0
  4  3  1  0  0  0  0
  5  4  2  0  0  0  0
  5  6  1  0  0  0  0
  6  1  2  0  0  0  0
  8  7  1  0  0  0  0
  9  4  1  0  0  0  0
 10  9  2  0  0  0  0
 11 12  1  0  0  0  0
 11  9  1  0  0  0  0
 13 12  2  0  0  0  0
 14 13  1  0  0  0  0
 15 14  2  0  0  0  0
 15 16  1  0  0  0  0
 16 11  2  0  0  0  0
 17  5  1  0  0  0  0
 18 17  1  0  0  0  0
M  END
>  <MODEL>
7

>  <REMARK>
 VINA RESULT:      -4.0      2.065      6.717
  Name = bgox31_2_ligand
  5 active torsions:
  status: ('A' for Active; 'I' for Inactive)
    1  A    between atoms: C_1  and  O_2
    2  A    between atoms: O_2  and  C_3
    3  A    between atoms: C_6  and  C_7
    4  A    between atoms: C_7  and  C_9
    5  A    between atoms: C_15  and  O_16
                            x       y       z     vdW  Elec       q    Type
                         _______ _______ _______ _____ _____    ______ ____

>  <TORSDO>
F 4

$$$$
bgox31_2_ligand
 OpenBabel10092621233D

 18 19  0  0  0  0  0  0  0  0999 V2000
   -3.2390   -4.2690    2.3080 C   0  0  0  0  0  0  0  0  0  0  0  0
   -1.9350   -3.7670    2.3630 C   0  0  0  0  0  3  0  0  0  0  0  0
   -0.8750   -4.6200    2.5370 C   0  0  0  0  0  3  0  0  0  0  0  0
   -1.1270   -5.9600    2.6440 C   0  0  0  0  0  0  0  0  0  0  0  0
   -2.4100   -6.4710    2.5430 C   0  0  0  0  0  0  0  0  0  0  0  0
   -3.4540   -5.6150    2.3660 C   0  0  0  0  0  3  0  0  0  0  0  0
   -4.1140   -2.3970    1.2120 C   0  0  0  0  0  1  0  0  0  0  0  0
   -4.2550   -3.4070    2.1810 O   0  0  0  0  0  0  0  0  0  0  0  0
    0.0460   -6.8720    2.8660 C   0  0  0  0  0  0  0  0  0  0  0  0
    0.4070   -7.5550    1.9490 O   0  0  0  0  0  0  0  0  0  0  0  0
    0.8020   -6.8600    4.0840 C   0  0  0  0  0  0  0  0  0  0  0  0
    2.0160   -6.2130    4.0550 C   0  0  0  0  0  3  0  0  0  0  0  0
    2.7990   -6.2350    5.1880 C   0  0  0  0  0  3  0  0  0  0  0  0
    2.3380   -6.8860    6.3070 C   0  0  0  0  0  3  0  0  0  0  0  0
    1.1880   -7.5150    6.3220 C   0  0  0  0  0  3  0  0  0  0  0  0
    0.3970   -7.4870    5.1940 C   0  0  0  0  0  3  0  0  0  0  0  0
   -2.5730   -7.8020    2.5900 O   0  0  0  0  0  0  0  0  0  0  0  0
   -1.8290   -8.4020    2.3330 H   0  0  0  0  0  0  0  0  0  0  0  0
  1  2  2  0  0  0  0
  1  6  1  0  0  0  0
  2  3  1  0  0  0  0
  3  4  2  0  0  0  0
  4  9  1  0  0  0  0
  5 17  1  0  0  0  0
  5  4  1  0  0  0  0
  6  5  2  0  0  0  0
  7  8  1  0  0  0  0
  8  1  1  0  0  0  0
  9 11  1  0  0  0  0
 10  9  2  0  0  0  0
 11 16  1  0  0  0  0
 12 11  2  0  0  0  0
 12 13  1  0  0  0  0
 13 14  2  0  0  0  0
 14 15  1  0  0  0  0
 16 15  2  0  0  0  0
 18 17  1  0  0  0  0
M  END
>  <MODEL>
8

>  <REMARK>
 VINA RESULT:      -4.0      1.302      1.920
  Name = bgox31_2_ligand
  5 active torsions:
  status: ('A' for Active; 'I' for Inactive)
    1  A    between atoms: C_1  and  O_2
    2  A    between atoms: O_2  and  C_3
    3  A    between atoms: C_6  and  C_7
    4  A    between atoms: C_7  and  C_9
    5  A    between atoms: C_15  and  O_16
                            x       y       z     vdW  Elec       q    Type
                         _______ _______ _______ _____ _____    ______ ____

>  <TORSDO>
F 4

$$$$
bgox31_2_ligand
 OpenBabel10092621233D

 18 19  0  0  0  0  0  0  0  0999 V2000
   -5.6480    1.4000   -1.7290 C   0  0  0  0  0  0  0  0  0  0  0  0
   -4.4220    1.3340   -1.0600 C   0  0  0  0  0  3  0  0  0  0  0  0
   -4.1370    0.2680   -0.2450 C   0  0  0  0  0  3  0  0  0  0  0  0
   -5.0720   -0.7210   -0.1160 C   0  0  0  0  0  0  0  0  0  0  0  0
   -6.2690   -0.6890   -0.8110 C   0  0  0  0  0  0  0  0  0  0  0  0
   -6.5390    0.3730   -1.6200 C   0  0  0  0  0  3  0  0  0  0  0  0
   -6.1030    2.2550   -3.8580 C   0  0  0  0  0  1  0  0  0  0  0  0
   -5.9130    2.4750   -2.4820 O   0  0  0  0  0  0  0  0  0  0  0  0
   -4.7530   -1.8640    0.8060 C   0  0  0  0  0  0  0  0  0  0  0  0
   -5.3910   -1.9640    1.8160 O   0  0  0  0  0  0  0  0  0  0  0  0
   -3.8080   -2.8840    0.4580 C   0  0  0  0  0  0  0  0  0  0  0  0
   -4.3100   -4.0220   -0.1310 C   0  0  0  0  0  3  0  0  0  0  0  0
   -3.4400   -5.0500   -0.4210 C   0  0  0  0  0  3  0  0  0  0  0  0
   -2.1060   -4.8990   -0.1280 C   0  0  0  0  0  3  0  0  0  0  0  0
   -1.6370   -3.8190    0.4490 C   0  0  0  0  0  3  0  0  0  0  0  0
   -2.5030   -2.7850    0.7320 C   0  0  0  0  0  3  0  0  0  0  0  0
   -7.1090   -1.7270   -0.6870 O   0  0  0  0  0  0  0  0  0  0  0  0
   -6.8410   -2.6240   -1.0090 H   0  0  0  0  0  0  0  0  0  0  0  0
  1  6  2  0  0  0  0
  1  2  1  0  0  0  0
  2  3  2  0  0  0  0
  3  4  1  0  0  0  0
  4  9  1  0  0  0  0
  5 17  1  0  0  0  0
  5  4  2  0  0  0  0
  6  5  1  0  0  0  0
  7  8  1  0  0  0  0
  8  1  1  0  0  0  0
  9 10  2  0  0  0  0
 11 16  1  0  0  0  0
 11  9  1  0  0  0  0
 12 11  2  0  0  0  0
 13 12  1  0  0  0  0
 13 14  2  0  0  0  0
 14 15  1  0  0  0  0
 15 16  2  0  0  0  0
 18 17  1  0  0  0  0
M  END
>  <MODEL>
9

>  <REMARK>
 VINA RESULT:      -4.0      4.849      7.142
  Name = bgox31_2_ligand
  5 active torsions:
  status: ('A' for Active; 'I' for Inactive)
    1  A    between atoms: C_1  and  O_2
    2  A    between atoms: O_2  and  C_3
    3  A    between atoms: C_6  and  C_7
    4  A    between atoms: C_7  and  C_9
    5  A    between atoms: C_15  and  O_16
                            x       y       z     vdW  Elec       q    Type
                         _______ _______ _______ _____ _____    ______ ____

>  <TORSDO>
F 4

$$$$
