bg33_4_ligand
 OpenBabel10092621183D

 20 20  0  0  1  0  0  0  0  0999 V2000
    1.2560    4.6160   -2.2930 C   0  0  0  0  0  0  0  0  0  0  0  0
    0.5540    3.6260   -2.6590 O   0  0  0  0  0  0  0  0  0  0  0  0
    2.6580    4.4990   -1.8620 C   0  0  0  0  0  3  0  0  0  0  0  0
    3.6850    4.7880   -2.8200 C   0  0  0  0  0  3  0  0  0  0  0  0
    5.1520    4.5850   -2.4770 C   0  0  0  0  0  0  0  0  0  0  0  0
    6.1510    4.6260   -3.4270 C   0  0  0  0  0  3  0  0  0  0  0  0
    7.5300    4.4350   -3.0710 C   0  0  0  0  0  3  0  0  0  0  0  0
    7.9310    4.2180   -1.7400 C   0  0  0  0  0  0  0  0  0  0  0  0
    6.9040    4.1970   -0.7980 C   0  0  0  0  0  3  0  0  0  0  0  0
    5.5620    4.3910   -1.1500 C   0  0  0  0  0  3  0  0  0  0  0  0
    9.2430    4.0840   -1.3300 O   0  0  0  0  0  0  0  0  0  0  0  0
    9.9220    2.8270   -1.5790 C   0  0  0  0  0  1  0  0  0  0  0  0
    0.7360    5.9800   -2.4260 O   0  0  0  0  0  0  0  0  0  0  0  0
    0.6250    6.7800   -1.2980 C   0  0  2  0  0  3  0  0  0  0  0  0
   -0.9050    6.7020   -1.0210 C   0  0  0  0  0  2  0  0  0  0  0  0
   -1.5120    8.1130   -0.7300 C   0  0  0  0  0  1  0  0  0  0  0  0
    1.1710    8.2430   -1.6410 C   0  0  0  0  0  2  0  0  0  0  0  0
    2.6790    8.2430   -1.6790 C   0  0  0  0  0  2  0  0  0  0  0  0
    4.7950    7.8690   -0.3340 C   0  0  0  0  0  1  0  0  0  0  0  0
    3.2920    7.8160   -0.3480 C   0  0  0  0  0  2  0  0  0  0  0  0
  1  3  1  0  0  0  0
  2  1  2  0  0  0  0
  4  5  1  0  0  0  0
  4  3  2  0  0  0  0
  5 10  1  0  0  0  0
  6  7  1  0  0  0  0
  6  5  2  0  0  0  0
  7  8  2  0  0  0  0
  8 11  1  0  0  0  0
  8  9  1  0  0  0  0
 10  9  2  0  0  0  0
 12 11  1  0  0  0  0
 13  1  1  0  0  0  0
 13 14  1  0  0  0  0
 14 17  1  6  0  0  0
 14 15  1  0  0  0  0
 15 16  1  0  0  0  0
 18 17  1  0  0  0  0
 18 20  1  0  0  0  0
 20 19  1  0  0  0  0
M  END
>  <MODEL>
1

>  <REMARK>
 VINA RESULT:      -4.1      0.000      0.000
  Name = bg33_4_ligand
  12 active torsions:
  status: ('A' for Active; 'I' for Inactive)
    1  A    between atoms: C_1  and  C_2
    2  A    between atoms: C_2  and  C_3
    3  A    between atoms: C_3  and  C_4
    4  A    between atoms: C_4  and  C_5
    5  A    between atoms: C_5  and  C_6
    6  A    between atoms: C_5  and  O_8
    7  A    between atoms: C_6  and  C_7
    8  A    between atoms: O_8  and  C_9
    9  A    between atoms: C_9  and  C_11
   10  A    between atoms: C_12  and  C_13
   11  A    between atoms: C_16  and  O_17
   12  A    between atoms: O_17  and  C_18
                            x       y       z     vdW  Elec       q    Type
                         _______ _______ _______ _____ _____    ______ ____

>  <TORSDO>
F 9

$$$$
bg33_4_ligand
 OpenBabel10092621183D

 20 20  0  0  1  0  0  0  0  0999 V2000
    3.9650    4.4640   -4.4550 C   0  0  0  0  0  0  0  0  0  0  0  0
    4.7370    4.4900   -5.4610 O   0  0  0  0  0  0  0  0  0  0  0  0
    4.4380    4.6010   -3.0690 C   0  0  0  0  0  3  0  0  0  0  0  0
    5.8480    4.4920   -2.8240 C   0  0  0  0  0  3  0  0  0  0  0  0
    6.3970    4.5160   -1.4060 C   0  0  0  0  0  0  0  0  0  0  0  0
    6.8720    3.3870   -0.7730 C   0  0  0  0  0  3  0  0  0  0  0  0
    7.3900    3.4420    0.5660 C   0  0  0  0  0  3  0  0  0  0  0  0
    7.4570    4.6480    1.2880 C   0  0  0  0  0  0  0  0  0  0  0  0
    6.9860    5.7760    0.6190 C   0  0  0  0  0  3  0  0  0  0  0  0
    6.4880    5.7170   -0.6890 C   0  0  0  0  0  3  0  0  0  0  0  0
    7.9950    4.7730    2.5530 O   0  0  0  0  0  0  0  0  0  0  0  0
    8.9260    3.7610    3.0140 C   0  0  0  0  0  1  0  0  0  0  0  0
    2.5110    4.4430   -4.6390 O   0  0  0  0  0  0  0  0  0  0  0  0
    1.7150    3.7970   -3.7050 C   0  0  2  0  0  3  0  0  0  0  0  0
    1.1110    2.6490   -4.5650 C   0  0  0  0  0  2  0  0  0  0  0  0
   -0.3860    2.3810   -4.2020 C   0  0  0  0  0  1  0  0  0  0  0  0
    0.6460    4.8350   -3.1240 C   0  0  0  0  0  2  0  0  0  0  0  0
    0.8140    4.9800   -1.6330 C   0  0  0  0  0  2  0  0  0  0  0  0
    2.4430    6.8200   -1.0120 C   0  0  0  0  0  1  0  0  0  0  0  0
    1.0030    6.4340   -1.2100 C   0  0  0  0  0  2  0  0  0  0  0  0
  1  3  1  0  0  0  0
  2  1  2  0  0  0  0
  3  4  2  0  0  0  0
  4  5  1  0  0  0  0
  5  6  2  0  0  0  0
  5 10  1  0  0  0  0
  6  7  1  0  0  0  0
  7  8  2  0  0  0  0
  8 11  1  0  0  0  0
  9  8  1  0  0  0  0
 10  9  2  0  0  0  0
 11 12  1  0  0  0  0
 13  1  1  0  0  0  0
 13 14  1  0  0  0  0
 14 15  1  6  0  0  0
 14 17  1  0  0  0  0
 15 16  1  0  0  0  0
 17 18  1  0  0  0  0
 18 20  1  0  0  0  0
 20 19  1  0  0  0  0
M  END
>  <MODEL>
2

>  <REMARK>
 VINA RESULT:      -4.0      2.428      3.737
  Name = bg33_4_ligand
  12 active torsions:
  status: ('A' for Active; 'I' for Inactive)
    1  A    between atoms: C_1  and  C_2
    2  A    between atoms: C_2  and  C_3
    3  A    between atoms: C_3  and  C_4
    4  A    between atoms: C_4  and  C_5
    5  A    between atoms: C_5  and  C_6
    6  A    between atoms: C_5  and  O_8
    7  A    between atoms: C_6  and  C_7
    8  A    between atoms: O_8  and  C_9
    9  A    between atoms: C_9  and  C_11
   10  A    between atoms: C_12  and  C_13
   11  A    between atoms: C_16  and  O_17
   12  A    between atoms: O_17  and  C_18
                            x       y       z     vdW  Elec       q    Type
                         _______ _______ _______ _____ _____    ______ ____

>  <TORSDO>
F 9

$$$$
bg33_4_ligand
 OpenBabel10092621183D

 20 20  0  0  1  0  0  0  0  0999 V2000
    1.7450    4.1510   -2.3320 C   0  0  0  0  0  0  0  0  0  0  0  0
    1.6520    3.0670   -2.9850 O   0  0  0  0  0  0  0  0  0  0  0  0
    2.9150    4.5050   -1.5150 C   0  0  0  0  0  3  0  0  0  0  0  0
    4.1930    4.5790   -2.1620 C   0  0  0  0  0  3  0  0  0  0  0  0
    5.4600    4.8340   -1.3620 C   0  0  0  0  0  0  0  0  0  0  0  0
    5.7510    6.0600   -0.8010 C   0  0  0  0  0  3  0  0  0  0  0  0
    6.9550    6.2700   -0.0450 C   0  0  0  0  0  3  0  0  0  0  0  0
    7.8820    5.2360    0.1770 C   0  0  0  0  0  0  0  0  0  0  0  0
    7.5560    4.0040   -0.3860 C   0  0  0  0  0  3  0  0  0  0  0  0
    6.3780    3.8030   -1.1170 C   0  0  0  0  0  3  0  0  0  0  0  0
    9.0260    5.3630    0.9410 O   0  0  0  0  0  0  0  0  0  0  0  0
    8.9640    5.0070    2.3460 C   0  0  0  0  0  1  0  0  0  0  0  0
    0.7250    5.1930   -2.4830 O   0  0  0  0  0  0  0  0  0  0  0  0
    0.8450    6.3730   -1.7620 C   0  0  2  0  0  3  0  0  0  0  0  0
   -0.5930    6.5220   -1.1850 C   0  0  0  0  0  2  0  0  0  0  0  0
   -1.0460    8.0170   -1.1420 C   0  0  0  0  0  1  0  0  0  0  0  0
    1.2960    7.5440   -2.7520 C   0  0  0  0  0  2  0  0  0  0  0  0
    2.5930    8.1540   -2.2840 C   0  0  0  0  0  2  0  0  0  0  0  0
    3.7690    9.0740   -0.2360 C   0  0  0  0  0  1  0  0  0  0  0  0
    2.7360    8.1170   -0.7650 C   0  0  0  0  0  2  0  0  0  0  0  0
  1  3  1  0  0  0  0
  2  1  2  0  0  0  0
  4  3  2  0  0  0  0
  4  5  1  0  0  0  0
  5 10  2  0  0  0  0
  5  6  1  0  0  0  0
  6  7  2  0  0  0  0
  7  8  1  0  0  0  0
  8 11  1  0  0  0  0
  9  8  2  0  0  0  0
 10  9  1  0  0  0  0
 11 12  1  0  0  0  0
 13  1  1  0  0  0  0
 13 14  1  0  0  0  0
 14 17  1  6  0  0  0
 14 15  1  0  0  0  0
 15 16  1  0  0  0  0
 17 18  1  0  0  0  0
 18 20  1  0  0  0  0
 20 19  1  0  0  0  0
M  END
>  <MODEL>
3

>  <REMARK>
 VINA RESULT:      -4.0      1.466      1.837
  Name = bg33_4_ligand
  12 active torsions:
  status: ('A' for Active; 'I' for Inactive)
    1  A    between atoms: C_1  and  C_2
    2  A    between atoms: C_2  and  C_3
    3  A    between atoms: C_3  and  C_4
    4  A    between atoms: C_4  and  C_5
    5  A    between atoms: C_5  and  C_6
    6  A    between atoms: C_5  and  O_8
    7  A    between atoms: C_6  and  C_7
    8  A    between atoms: O_8  and  C_9
    9  A    between atoms: C_9  and  C_11
   10  A    between atoms: C_12  and  C_13
   11  A    between atoms: C_16  and  O_17
   12  A    between atoms: O_17  and  C_18
                            x       y       z     vdW  Elec       q    Type
                         _______ _______ _______ _____ _____    ______ ____

>  <TORSDO>
F 9

$$$$
bg33_4_ligand
 OpenBabel10092621183D

 20 20  0  0  1  0  0  0  0  0999 V2000
    4.6710    4.7990   -2.4670 C   0  0  0  0  0  0  0  0  0  0  0  0
    5.1520    4.6130   -3.6260 O   0  0  0  0  0  0  0  0  0  0  0  0
    5.4660    4.6920   -1.2350 C   0  0  0  0  0  3  0  0  0  0  0  0
    6.7330    4.0230   -1.3060 C   0  0  0  0  0  3  0  0  0  0  0  0
    7.5590    3.7810   -0.0530 C   0  0  0  0  0  0  0  0  0  0  0  0
    8.5900    2.8660   -0.0070 C   0  0  0  0  0  3  0  0  0  0  0  0
    9.3560    2.6630    1.1920 C   0  0  0  0  0  3  0  0  0  0  0  0
    9.1090    3.3970    2.3660 C   0  0  0  0  0  0  0  0  0  0  0  0
    8.0730    4.3250    2.2870 C   0  0  0  0  0  3  0  0  0  0  0  0
    7.3330    4.5240    1.1140 C   0  0  0  0  0  3  0  0  0  0  0  0
    9.8460    3.2860    3.5280 O   0  0  0  0  0  0  0  0  0  0  0  0
    9.3460    2.4320    4.5880 C   0  0  0  0  0  1  0  0  0  0  0  0
    3.2980    5.2870   -2.3070 O   0  0  0  0  0  0  0  0  0  0  0  0
    2.2780    4.3820   -2.0510 C   0  0  2  0  0  3  0  0  0  0  0  0
    1.7600    4.0940   -3.4900 C   0  0  0  0  0  2  0  0  0  0  0  0
    0.5970    3.0500   -3.4870 C   0  0  0  0  0  1  0  0  0  0  0  0
    1.2100    5.0630   -1.0760 C   0  0  0  0  0  2  0  0  0  0  0  0
    1.0440    6.5210   -1.4180 C   0  0  0  0  0  2  0  0  0  0  0  0
   -1.2750    7.3090   -0.7610 C   0  0  0  0  0  1  0  0  0  0  0  0
   -0.3750    6.8510   -1.8760 C   0  0  0  0  0  2  0  0  0  0  0  0
  1 13  1  0  0  0  0
  1  3  1  0  0  0  0
  2  1  2  0  0  0  0
  4  3  2  0  0  0  0
  4  5  1  0  0  0  0
  5  6  2  0  0  0  0
  5 10  1  0  0  0  0
  6  7  1  0  0  0  0
  7  8  2  0  0  0  0
  8 11  1  0  0  0  0
  9  8  1  0  0  0  0
 10  9  2  0  0  0  0
 11 12  1  0  0  0  0
 13 14  1  0  0  0  0
 14 15  1  6  0  0  0
 14 17  1  0  0  0  0
 15 16  1  0  0  0  0
 18 17  1  0  0  0  0
 20 18  1  0  0  0  0
 20 19  1  0  0  0  0
M  END
>  <MODEL>
4

>  <REMARK>
 VINA RESULT:      -4.0      2.707      4.232
  Name = bg33_4_ligand
  12 active torsions:
  status: ('A' for Active; 'I' for Inactive)
    1  A    between atoms: C_1  and  C_2
    2  A    between atoms: C_2  and  C_3
    3  A    between atoms: C_3  and  C_4
    4  A    between atoms: C_4  and  C_5
    5  A    between atoms: C_5  and  C_6
    6  A    between atoms: C_5  and  O_8
    7  A    between atoms: C_6  and  C_7
    8  A    between atoms: O_8  and  C_9
    9  A    between atoms: C_9  and  C_11
   10  A    between atoms: C_12  and  C_13
   11  A    between atoms: C_16  and  O_17
   12  A    between atoms: O_17  and  C_18
                            x       y       z     vdW  Elec       q    Type
                         _______ _______ _______ _____ _____    ______ ____

>  <TORSDO>
F 9

$$$$
bg33_4_ligand
 OpenBabel10092621183D

 20 20  0  0  1  0  0  0  0  0999 V2000
    3.2520    7.3010   -1.1630 C   0  0  0  0  0  0  0  0  0  0  0  0
    3.8840    7.7550   -0.1610 O   0  0  0  0  0  0  0  0  0  0  0  0
    1.9470    7.8210   -1.5990 C   0  0  0  0  0  3  0  0  0  0  0  0
    0.7670    7.1260   -1.1740 C   0  0  0  0  0  3  0  0  0  0  0  0
   -0.6070    7.5430   -1.6730 C   0  0  0  0  0  0  0  0  0  0  0  0
   -1.5900    8.0230   -0.8320 C   0  0  0  0  0  3  0  0  0  0  0  0
   -2.8780    8.4140   -1.3350 C   0  0  0  0  0  3  0  0  0  0  0  0
   -3.1940    8.3470   -2.7040 C   0  0  0  0  0  0  0  0  0  0  0  0
   -2.1780    7.8750   -3.5330 C   0  0  0  0  0  3  0  0  0  0  0  0
   -0.9210    7.5010   -3.0390 C   0  0  0  0  0  3  0  0  0  0  0  0
   -4.3910    8.7620   -3.2520 O   0  0  0  0  0  0  0  0  0  0  0  0
   -5.2770    7.7620   -3.8190 C   0  0  0  0  0  1  0  0  0  0  0  0
    3.8770    6.3100   -2.0430 O   0  0  0  0  0  0  0  0  0  0  0  0
    3.7850    4.9620   -1.7250 C   0  0  2  0  0  3  0  0  0  0  0  0
    5.2890    4.5760   -1.6070 C   0  0  0  0  0  2  0  0  0  0  0  0
    5.9630    4.4430   -3.0110 C   0  0  0  0  0  1  0  0  0  0  0  0
    2.9870    4.2060   -2.8850 C   0  0  0  0  0  2  0  0  0  0  0  0
    1.5620    3.9560   -2.4630 C   0  0  0  0  0  2  0  0  0  0  0  0
    1.6000    2.6060   -4.6090 C   0  0  0  0  0  1  0  0  0  0  0  0
    0.7510    3.2510   -3.5480 C   0  0  0  0  0  2  0  0  0  0  0  0
  1  2  2  0  0  0  0
  3  4  2  0  0  0  0
  3  1  1  0  0  0  0
  5  4  1  0  0  0  0
  5  6  1  0  0  0  0
  7  6  2  0  0  0  0
  8  7  1  0  0  0  0
  9 10  1  0  0  0  0
  9  8  2  0  0  0  0
 10  5  2  0  0  0  0
 11  8  1  0  0  0  0
 12 11  1  0  0  0  0
 13 14  1  0  0  0  0
 13  1  1  0  0  0  0
 14 17  1  6  0  0  0
 14 15  1  0  0  0  0
 16 15  1  0  0  0  0
 17 18  1  0  0  0  0
 19 20  1  0  0  0  0
 20 18  1  0  0  0  0
M  END
>  <MODEL>
5

>  <REMARK>
 VINA RESULT:      -4.0      2.535      8.282
  Name = bg33_4_ligand
  12 active torsions:
  status: ('A' for Active; 'I' for Inactive)
    1  A    between atoms: C_1  and  C_2
    2  A    between atoms: C_2  and  C_3
    3  A    between atoms: C_3  and  C_4
    4  A    between atoms: C_4  and  C_5
    5  A    between atoms: C_5  and  C_6
    6  A    between atoms: C_5  and  O_8
    7  A    between atoms: C_6  and  C_7
    8  A    between atoms: O_8  and  C_9
    9  A    between atoms: C_9  and  C_11
   10  A    between atoms: C_12  and  C_13
   11  A    between atoms: C_16  and  O_17
   12  A    between atoms: O_17  and  C_18
                            x       y       z     vdW  Elec       q    Type
                         _______ _______ _______ _____ _____    ______ ____

>  <TORSDO>
F 9

$$$$
bg33_4_ligand
 OpenBabel10092621183D

 20 20  0  0  1  0  0  0  0  0999 V2000
    1.9970    4.0910   -2.8830 C   0  0  0  0  0  0  0  0  0  0  0  0
    1.4730    2.9440   -3.0120 O   0  0  0  0  0  0  0  0  0  0  0  0
    3.0210    4.4040   -1.8740 C   0  0  0  0  0  3  0  0  0  0  0  0
    4.3580    4.6590   -2.3270 C   0  0  0  0  0  3  0  0  0  0  0  0
    5.4880    4.8830   -1.3340 C   0  0  0  0  0  0  0  0  0  0  0  0
    5.8320    6.1350   -0.8690 C   0  0  0  0  0  3  0  0  0  0  0  0
    6.9020    6.3150    0.0730 C   0  0  0  0  0  3  0  0  0  0  0  0
    7.6360    5.2270    0.5800 C   0  0  0  0  0  0  0  0  0  0  0  0
    7.2580    3.9730    0.1060 C   0  0  0  0  0  3  0  0  0  0  0  0
    6.2090    3.8030   -0.8070 C   0  0  0  0  0  3  0  0  0  0  0  0
    8.6350    5.3320    1.5280 O   0  0  0  0  0  0  0  0  0  0  0  0
    8.5710    4.4800    2.7000 C   0  0  0  0  0  1  0  0  0  0  0  0
    1.7070    5.1490   -3.8550 O   0  0  0  0  0  0  0  0  0  0  0  0
    0.6440    6.0110   -3.6260 C   0  0  2  0  0  3  0  0  0  0  0  0
    0.0180    6.1050   -5.0490 C   0  0  0  0  0  2  0  0  0  0  0  0
   -0.6040    4.7420   -5.4970 C   0  0  0  0  0  1  0  0  0  0  0  0
    1.2070    7.3910   -3.0480 C   0  0  0  0  0  2  0  0  0  0  0  0
    0.9240    7.4940   -1.5710 C   0  0  0  0  0  2  0  0  0  0  0  0
   -1.4910    7.6070   -0.8060 C   0  0  0  0  0  1  0  0  0  0  0  0
   -0.3290    6.7220   -1.1650 C   0  0  0  0  0  2  0  0  0  0  0  0
  1  3  1  0  0  0  0
  2  1  2  0  0  0  0
  4  3  2  0  0  0  0
  4  5  1  0  0  0  0
  5  6  2  0  0  0  0
  5 10  1  0  0  0  0
  6  7  1  0  0  0  0
  7  8  2  0  0  0  0
  8 11  1  0  0  0  0
  9  8  1  0  0  0  0
 10  9  2  0  0  0  0
 11 12  1  0  0  0  0
 13 14  1  0  0  0  0
 13  1  1  0  0  0  0
 14 15  1  6  0  0  0
 14 17  1  0  0  0  0
 16 15  1  0  0  0  0
 17 18  1  0  0  0  0
 18 20  1  0  0  0  0
 20 19  1  0  0  0  0
M  END
>  <MODEL>
6

>  <REMARK>
 VINA RESULT:      -4.0      1.991      3.100
  Name = bg33_4_ligand
  12 active torsions:
  status: ('A' for Active; 'I' for Inactive)
    1  A    between atoms: C_1  and  C_2
    2  A    between atoms: C_2  and  C_3
    3  A    between atoms: C_3  and  C_4
    4  A    between atoms: C_4  and  C_5
    5  A    between atoms: C_5  and  C_6
    6  A    between atoms: C_5  and  O_8
    7  A    between atoms: C_6  and  C_7
    8  A    between atoms: O_8  and  C_9
    9  A    between atoms: C_9  and  C_11
   10  A    between atoms: C_12  and  C_13
   11  A    between atoms: C_16  and  O_17
   12  A    between atoms: O_17  and  C_18
                            x       y       z     vdW  Elec       q    Type
                         _______ _______ _______ _____ _____    ______ ____

>  <TORSDO>
F 9

$$$$
bg33_4_ligand
 OpenBabel10092621183D

 20 20  0  0  1  0  0  0  0  0999 V2000
    3.8730    7.9460   -1.5340 C   0  0  0  0  0  0  0  0  0  0  0  0
    4.1640    8.7170   -2.4980 O   0  0  0  0  0  0  0  0  0  0  0  0
    4.8810    7.2110   -0.7540 C   0  0  0  0  0  3  0  0  0  0  0  0
    5.3970    5.9890   -1.3010 C   0  0  0  0  0  3  0  0  0  0  0  0
    6.3590    5.1230   -0.5040 C   0  0  0  0  0  0  0  0  0  0  0  0
    6.6940    3.8400   -0.8830 C   0  0  0  0  0  3  0  0  0  0  0  0
    7.6110    3.0470   -0.1110 C   0  0  0  0  0  3  0  0  0  0  0  0
    8.2260    3.5440    1.0520 C   0  0  0  0  0  0  0  0  0  0  0  0
    7.8820    4.8480    1.4040 C   0  0  0  0  0  3  0  0  0  0  0  0
    6.9930    5.6190    0.6440 C   0  0  0  0  0  3  0  0  0  0  0  0
    9.1560    2.8510    1.8020 O   0  0  0  0  0  0  0  0  0  0  0  0
    9.5760    3.4090    3.0730 C   0  0  0  0  0  1  0  0  0  0  0  0
    2.4940    7.8640   -1.0440 O   0  0  0  0  0  0  0  0  0  0  0  0
    1.5870    7.0420   -1.6980 C   0  0  2  0  0  3  0  0  0  0  0  0
    0.2760    7.8700   -1.5610 C   0  0  0  0  0  2  0  0  0  0  0  0
   -0.9060    6.9970   -1.0270 C   0  0  0  0  0  1  0  0  0  0  0  0
    1.5590    5.6170   -0.9740 C   0  0  0  0  0  2  0  0  0  0  0  0
    2.1170    4.5550   -1.8880 C   0  0  0  0  0  2  0  0  0  0  0  0
    1.5120    2.9180   -3.7270 C   0  0  0  0  0  1  0  0  0  0  0  0
    1.1500    4.1910   -3.0120 C   0  0  0  0  0  2  0  0  0  0  0  0
  1 13  1  0  0  0  0
  1  3  1  0  0  0  0
  2  1  2  0  0  0  0
  4  3  2  0  0  0  0
  4  5  1  0  0  0  0
  5 10  1  0  0  0  0
  6  5  2  0  0  0  0
  6  7  1  0  0  0  0
  7  8  2  0  0  0  0
  8  9  1  0  0  0  0
  8 11  1  0  0  0  0
 10  9  2  0  0  0  0
 11 12  1  0  0  0  0
 14 15  1  1  0  0  0
 14 13  1  0  0  0  0
 14 17  1  0  0  0  0
 15 16  1  0  0  0  0
 18 17  1  0  0  0  0
 19 20  1  0  0  0  0
 20 18  1  0  0  0  0
M  END
>  <MODEL>
7

>  <REMARK>
 VINA RESULT:      -3.9      2.193      3.631
  Name = bg33_4_ligand
  12 active torsions:
  status: ('A' for Active; 'I' for Inactive)
    1  A    between atoms: C_1  and  C_2
    2  A    between atoms: C_2  and  C_3
    3  A    between atoms: C_3  and  C_4
    4  A    between atoms: C_4  and  C_5
    5  A    between atoms: C_5  and  C_6
    6  A    between atoms: C_5  and  O_8
    7  A    between atoms: C_6  and  C_7
    8  A    between atoms: O_8  and  C_9
    9  A    between atoms: C_9  and  C_11
   10  A    between atoms: C_12  and  C_13
   11  A    between atoms: C_16  and  O_17
   12  A    between atoms: O_17  and  C_18
                            x       y       z     vdW  Elec       q    Type
                         _______ _______ _______ _____ _____    ______ ____

>  <TORSDO>
F 9

$$$$
bg33_4_ligand
 OpenBabel10092621183D

 20 20  0  0  1  0  0  0  0  0999 V2000
    1.2160    4.3330   -2.3970 C   0  0  0  0  0  0  0  0  0  0  0  0
    0.2800    3.6180   -2.8690 O   0  0  0  0  0  0  0  0  0  0  0  0
    2.6290    4.1640   -2.7690 C   0  0  0  0  0  3  0  0  0  0  0  0
    3.6270    4.5010   -1.7960 C   0  0  0  0  0  3  0  0  0  0  0  0
    5.1060    4.4530   -2.1470 C   0  0  0  0  0  0  0  0  0  0  0  0
    5.5660    4.5510   -3.4440 C   0  0  0  0  0  3  0  0  0  0  0  0
    6.9710    4.5070   -3.7430 C   0  0  0  0  0  3  0  0  0  0  0  0
    7.9430    4.3830   -2.7340 C   0  0  0  0  0  0  0  0  0  0  0  0
    7.4520    4.3030   -1.4330 C   0  0  0  0  0  3  0  0  0  0  0  0
    6.0810    4.3530   -1.1450 C   0  0  0  0  0  3  0  0  0  0  0  0
    9.3060    4.3920   -2.9560 O   0  0  0  0  0  0  0  0  0  0  0  0
   10.1910    4.6090   -1.8270 C   0  0  0  0  0  1  0  0  0  0  0  0
    0.9070    5.4880   -1.5490 O   0  0  0  0  0  0  0  0  0  0  0  0
    0.1090    6.5070   -2.0490 C   0  0  2  0  0  3  0  0  0  0  0  0
    1.1780    7.5800   -2.4090 C   0  0  0  0  0  2  0  0  0  0  0  0
    2.1450    7.8560   -1.2120 C   0  0  0  0  0  1  0  0  0  0  0  0
   -0.9360    6.9500   -0.9230 C   0  0  0  0  0  2  0  0  0  0  0  0
   -1.7880    8.0910   -1.4200 C   0  0  0  0  0  2  0  0  0  0  0  0
   -0.8390   10.3960   -0.9560 C   0  0  0  0  0  1  0  0  0  0  0  0
   -1.7480    9.2950   -0.4820 C   0  0  0  0  0  2  0  0  0  0  0  0
  1 13  1  0  0  0  0
  2  1  2  0  0  0  0
  3  1  1  0  0  0  0
  3  4  2  0  0  0  0
  5  4  1  0  0  0  0
  5 10  1  0  0  0  0
  6  5  2  0  0  0  0
  7  6  1  0  0  0  0
  7  8  2  0  0  0  0
  8  9  1  0  0  0  0
  9 10  2  0  0  0  0
 11  8  1  0  0  0  0
 11 12  1  0  0  0  0
 14 15  1  1  0  0  0
 14 13  1  0  0  0  0
 14 17  1  0  0  0  0
 15 16  1  0  0  0  0
 18 17  1  0  0  0  0
 18 20  1  0  0  0  0
 19 20  1  0  0  0  0
M  END
>  <MODEL>
8

>  <REMARK>
 VINA RESULT:      -3.8      1.107      2.520
  Name = bg33_4_ligand
  12 active torsions:
  status: ('A' for Active; 'I' for Inactive)
    1  A    between atoms: C_1  and  C_2
    2  A    between atoms: C_2  and  C_3
    3  A    between atoms: C_3  and  C_4
    4  A    between atoms: C_4  and  C_5
    5  A    between atoms: C_5  and  C_6
    6  A    between atoms: C_5  and  O_8
    7  A    between atoms: C_6  and  C_7
    8  A    between atoms: O_8  and  C_9
    9  A    between atoms: C_9  and  C_11
   10  A    between atoms: C_12  and  C_13
   11  A    between atoms: C_16  and  O_17
   12  A    between atoms: O_17  and  C_18
                            x       y       z     vdW  Elec       q    Type
                         _______ _______ _______ _____ _____    ______ ____

>  <TORSDO>
F 9

$$$$
bg33_4_ligand
 OpenBabel10092621183D

 20 20  0  0  1  0  0  0  0  0999 V2000
    4.3970    5.4570   -2.0050 C   0  0  0  0  0  0  0  0  0  0  0  0
    4.4820    6.1810   -3.0430 O   0  0  0  0  0  0  0  0  0  0  0  0
    5.4890    5.3090   -1.0310 C   0  0  0  0  0  3  0  0  0  0  0  0
    6.2070    4.0670   -1.0070 C   0  0  0  0  0  3  0  0  0  0  0  0
    7.2760    3.8040    0.0430 C   0  0  0  0  0  0  0  0  0  0  0  0
    7.3270    4.4880    1.2390 C   0  0  0  0  0  3  0  0  0  0  0  0
    8.3470    4.2140    2.2140 C   0  0  0  0  0  3  0  0  0  0  0  0
    9.3270    3.2260    2.0060 C   0  0  0  0  0  0  0  0  0  0  0  0
    9.2430    2.5400    0.7960 C   0  0  0  0  0  3  0  0  0  0  0  0
    8.2420    2.8070   -0.1470 C   0  0  0  0  0  3  0  0  0  0  0  0
   10.2960    2.8800    2.9280 O   0  0  0  0  0  0  0  0  0  0  0  0
   10.9500    3.9360    3.6760 C   0  0  0  0  0  1  0  0  0  0  0  0
    3.1210    4.8340   -1.6410 O   0  0  0  0  0  0  0  0  0  0  0  0
    1.9530    5.2680   -2.2500 C   0  0  2  0  0  3  0  0  0  0  0  0
    1.3730    6.2120   -1.1550 C   0  0  0  0  0  2  0  0  0  0  0  0
   -0.1410    6.5150   -1.3970 C   0  0  0  0  0  1  0  0  0  0  0  0
    1.0420    4.0000   -2.5930 C   0  0  0  0  0  2  0  0  0  0  0  0
    1.7710    3.0710   -3.5310 C   0  0  0  0  0  2  0  0  0  0  0  0
   -0.5150    2.2980   -4.3070 C   0  0  0  0  0  1  0  0  0  0  0  0
    0.8980    2.6280   -4.7020 C   0  0  0  0  0  2  0  0  0  0  0  0
  1 13  1  0  0  0  0
  1  3  1  0  0  0  0
  2  1  2  0  0  0  0
  3  4  2  0  0  0  0
  4  5  1  0  0  0  0
  5  6  1  0  0  0  0
  6  7  2  0  0  0  0
  8  7  1  0  0  0  0
  8 11  1  0  0  0  0
  9  8  2  0  0  0  0
 10  5  2  0  0  0  0
 10  9  1  0  0  0  0
 11 12  1  0  0  0  0
 14 17  1  1  0  0  0
 14 13  1  0  0  0  0
 14 15  1  0  0  0  0
 16 15  1  0  0  0  0
 18 17  1  0  0  0  0
 20 19  1  0  0  0  0
 20 18  1  0  0  0  0
M  END
>  <MODEL>
9

>  <REMARK>
 VINA RESULT:      -3.8      2.698      4.495
  Name = bg33_4_ligand
  12 active torsions:
  status: ('A' for Active; 'I' for Inactive)
    1  A    between atoms: C_1  and  C_2
    2  A    between atoms: C_2  and  C_3
    3  A    between atoms: C_3  and  C_4
    4  A    between atoms: C_4  and  C_5
    5  A    between atoms: C_5  and  C_6
    6  A    between atoms: C_5  and  O_8
    7  A    between atoms: C_6  and  C_7
    8  A    between atoms: O_8  and  C_9
    9  A    between atoms: C_9  and  C_11
   10  A    between atoms: C_12  and  C_13
   11  A    between atoms: C_16  and  O_17
   12  A    between atoms: O_17  and  C_18
                            x       y       z     vdW  Elec       q    Type
                         _______ _______ _______ _____ _____    ______ ____

>  <TORSDO>
F 9

$$$$
