bgox31_2_dockpose1
     RDKit          3D

 17 18  0  0  0  0  0  0  0  0999 V2000
   -5.5190    4.8410    1.7680 C   0  0  0  0  0  0  0  0  0  0  0  0
   -5.5820    3.4380    1.8150 O   0  0  0  0  0  0  0  0  0  0  0  0
   -6.6780    2.8640    1.3030 C   0  0  0  0  0  0  0  0  0  0  0  0
   -7.4900    3.6120    0.4460 C   0  0  0  0  0  0  0  0  0  0  0  0
   -8.5960    3.0400   -0.1310 C   0  0  0  0  0  0  0  0  0  0  0  0
   -8.8810    1.7350    0.1610 C   0  0  0  0  0  0  0  0  0  0  0  0
  -10.0770    1.1190   -0.5060 C   0  0  0  0  0  0  0  0  0  0  0  0
  -11.0910    1.0310    0.1290 O   0  0  0  0  0  0  0  0  0  0  0  0
  -10.0730    0.7510   -1.8920 C   0  0  0  0  0  0  0  0  0  0  0  0
   -9.4180   -0.4120   -2.2260 C   0  0  0  0  0  0  0  0  0  0  0  0
   -9.3380   -0.7630   -3.5550 C   0  0  0  0  0  0  0  0  0  0  0  0
   -9.9270    0.0460   -4.4960 C   0  0  0  0  0  0  0  0  0  0  0  0
  -10.5350    1.1620   -4.1740 C   0  0  0  0  0  0  0  0  0  0  0  0
  -10.6250    1.5130   -2.8440 C   0  0  0  0  0  0  0  0  0  0  0  0
   -8.1100    1.0000    1.0460 C   0  0  0  0  0  0  0  0  0  0  0  0
   -8.4900   -0.2540    1.3360 O   0  0  0  0  0  0  0  0  0  0  0  0
   -7.0180    1.5800    1.6150 C   0  0  0  0  0  0  0  0  0  0  0  0
  2  1  1  0
  3  2  1  0
  4  3  1  0
  5  4  2  0
  6  5  1  0
  7  6  1  0
  8  7  2  0
  9  7  1  0
 10  9  2  0
 11 10  1  0
 12 11  2  0
 13 12  1  0
 14 13  2  0
 14  9  1  0
 15  6  2  0
 16 15  1  0
 17 15  1  0
 17  3  2  0
M  END
