ox1_orig_f12_dockpose1
     RDKit          3D

 17 18  0  0  0  0  0  0  0  0999 V2000
   -6.4750    1.2070    2.2670 C   0  0  0  0  0  0  0  0  0  0  0  0
   -5.1620    0.7850    2.5570 O   0  0  0  0  0  0  0  0  0  0  0  0
   -4.1050    1.3390    1.8870 C   0  0  0  0  0  0  0  0  0  0  0  0
   -2.8490    0.7680    2.0610 C   0  0  0  0  0  0  0  0  0  0  0  0
   -1.7500    1.2960    1.3980 C   0  0  0  0  0  0  0  0  0  0  0  0
   -1.8930    2.3900    0.5490 C   0  0  0  0  0  0  0  0  0  0  0  0
   -0.7150    2.9820   -0.1780 C   0  0  0  0  0  0  0  0  0  0  0  0
   -0.4290    4.1390    0.0520 O   0  0  0  0  0  0  0  0  0  0  0  0
    0.1260    2.2120   -1.1230 C   0  0  0  0  0  0  0  0  0  0  0  0
    0.0550    0.8270   -1.2000 C   0  0  0  0  0  0  0  0  0  0  0  0
    0.8520    0.1320   -2.0810 C   0  0  0  0  0  0  0  0  0  0  0  0
    1.7360    0.8110   -2.9050 C   0  0  0  0  0  0  0  0  0  0  0  0
    1.8050    2.1970   -2.8530 C   0  0  0  0  0  0  0  0  0  0  0  0
    0.9890    2.9100   -1.9790 C   0  0  0  0  0  0  0  0  0  0  0  0
   -3.1500    2.9610    0.3840 C   0  0  0  0  0  0  0  0  0  0  0  0
   -3.2820    4.0350   -0.4340 O   0  0  0  0  0  0  0  0  0  0  0  0
   -4.2430    2.4370    1.0550 C   0  0  0  0  0  0  0  0  0  0  0  0
  2  1  1  0
  3  2  1  0
  4  3  1  0
  5  4  2  0
  6  5  1  0
  7  6  1  0
  8  7  2  0
  9  7  1  0
 10  9  2  0
 11 10  1  0
 12 11  2  0
 13 12  1  0
 14 13  2  0
 14  9  1  0
 15  6  2  0
 16 15  1  0
 17 15  1  0
 17  3  2  0
M  END
$$$$
