ox1_esm1_f8_ligand
     RDKit          3D

 29 30  0  0  0  0  0  0  0  0999 V2000
    3.4871    3.8214   -3.0252 C   0  0  0  0  0  0  0  0  0  0  0  0
    2.5780    2.7395   -2.8005 O   0  0  0  0  0  0  0  0  0  0  0  0
    2.5659    1.6489   -3.6200 C   0  0  0  0  0  0  0  0  0  0  0  0
    1.6461    0.6356   -3.3495 C   0  0  0  0  0  0  0  0  0  0  0  0
    1.6013   -0.4980   -4.1486 C   0  0  0  0  0  0  0  0  0  0  0  0
    2.4709   -0.6497   -5.2148 C   0  0  0  0  0  0  0  0  0  0  0  0
    2.4255   -1.8846   -6.0628 C   0  0  0  0  0  0  0  0  0  0  0  0
    3.0833   -1.9276   -7.0991 O   0  0  0  0  0  0  0  0  0  0  0  0
    1.5738   -3.0487   -5.6766 C   0  0  0  0  0  0  0  0  0  0  0  0
    0.6190   -3.5150   -6.5054 C   0  0  0  0  0  0  0  0  0  0  0  0
   -0.1816   -4.6089   -6.2306 C   0  0  0  0  0  0  0  0  0  0  0  0
   -0.0335   -5.2489   -5.0239 C   0  0  0  0  0  0  0  0  0  0  0  0
    0.9287   -4.7914   -4.1347 C   0  0  0  0  0  0  0  0  0  0  0  0
    1.7205   -3.6925   -4.4684 C   0  0  0  0  0  0  0  0  0  0  0  0
    3.3992    0.3727   -5.5003 C   0  0  0  0  0  0  0  0  0  0  0  0
    4.2451    0.2334   -6.5622 O   0  0  0  0  0  0  0  0  0  0  0  0
    3.4307    1.5092   -4.6939 C   0  0  0  0  0  0  0  0  0  0  0  0
    4.4728    3.4203   -3.3033 H   0  0  0  0  0  0  0  0  0  0  0  0
    3.1070    4.4568   -3.8387 H   0  0  0  0  0  0  0  0  0  0  0  0
    3.5803    4.4188   -2.1063 H   0  0  0  0  0  0  0  0  0  0  0  0
    0.9542    0.7356   -2.5002 H   0  0  0  0  0  0  0  0  0  0  0  0
    0.8652   -1.2862   -3.9321 H   0  0  0  0  0  0  0  0  0  0  0  0
    0.4667   -2.9924   -7.4612 H   0  0  0  0  0  0  0  0  0  0  0  0
   -0.9226   -4.9597   -6.9641 H   0  0  0  0  0  0  0  0  0  0  0  0
   -0.6675   -6.1101   -4.7666 H   0  0  0  0  0  0  0  0  0  0  0  0
    1.0671   -5.2952   -3.1668 H   0  0  0  0  0  0  0  0  0  0  0  0
    2.4757   -3.3339   -3.7535 H   0  0  0  0  0  0  0  0  0  0  0  0
    4.9001    0.9460   -6.7700 H   0  0  0  0  0  0  0  0  0  0  0  0
    4.1538    2.3085   -4.9135 H   0  0  0  0  0  0  0  0  0  0  0  0
  2  1  1  0
  3  2  1  0
  4  3  1  0
  5  4  2  0
  6  5  1  0
  7  6  1  0
  8  7  2  0
  9  7  1  0
 10  9  2  0
 11 10  1  0
 12 11  2  0
 13 12  1  0
 14 13  2  0
 14  9  1  0
 15  6  2  0
 16 15  1  0
 17 15  1  0
 17  3  2  0
  1 18  1  0
  1 19  1  0
  1 20  1  0
  4 21  1  0
  5 22  1  0
 10 23  1  0
 11 24  1  0
 12 25  1  0
 13 26  1  0
 14 27  1  0
 16 28  1  0
 17 29  1  0
M  END
$$$$
