ox1_esm1_f8_ligand
 OpenBabel10092621183D

 18 19  0  0  0  0  0  0  0  0999 V2000
    8.6770   -6.1100   -4.7920 C   0  0  0  0  0  0  0  0  0  0  0  0
    8.0210   -5.6510   -3.6500 C   0  0  0  0  0  3  0  0  0  0  0  0
    6.8280   -6.2370   -3.2470 C   0  0  0  0  0  3  0  0  0  0  0  0
    6.2780   -7.2890   -3.9590 C   0  0  0  0  0  0  0  0  0  0  0  0
    6.9310   -7.7540   -5.1190 C   0  0  0  0  0  0  0  0  0  0  0  0
    8.1240   -7.1550   -5.5170 C   0  0  0  0  0  3  0  0  0  0  0  0
   10.4460   -4.5120   -4.3070 C   0  0  0  0  0  1  0  0  0  0  0  0
    9.8510   -5.5090   -5.1420 O   0  0  0  0  0  0  0  0  0  0  0  0
    4.9980   -7.9240   -3.5080 C   0  0  0  0  0  0  0  0  0  0  0  0
    5.0140   -9.0790   -3.0910 O   0  0  0  0  0  0  0  0  0  0  0  0
    3.7050   -7.1810   -3.5810 C   0  0  0  0  0  0  0  0  0  0  0  0
    2.7850   -7.2930   -2.6040 C   0  0  0  0  0  3  0  0  0  0  0  0
    1.5830   -6.6090   -2.5850 C   0  0  0  0  0  3  0  0  0  0  0  0
    1.2740   -5.7890   -3.6440 C   0  0  0  0  0  3  0  0  0  0  0  0
    2.1890   -5.6570   -4.6800 C   0  0  0  0  0  3  0  0  0  0  0  0
    3.3940   -6.3590   -4.6410 C   0  0  0  0  0  3  0  0  0  0  0  0
    6.3800   -8.7790   -5.8330 O   0  0  0  0  0  0  0  0  0  0  0  0
    6.7530   -9.0230   -6.7170 H   0  0  0  0  0  0  0  0  0  0  0  0
  1  2  1  0  0  0  0
  2  3  2  0  0  0  0
  4  9  1  0  0  0  0
  4  3  1  0  0  0  0
  5  4  2  0  0  0  0
  6  5  1  0  0  0  0
  6  1  2  0  0  0  0
  8  1  1  0  0  0  0
  8  7  1  0  0  0  0
  9 10  2  0  0  0  0
 11  9  1  0  0  0  0
 11 12  1  0  0  0  0
 12 13  2  0  0  0  0
 14 13  1  0  0  0  0
 15 16  1  0  0  0  0
 15 14  2  0  0  0  0
 16 11  2  0  0  0  0
 17  5  1  0  0  0  0
 18 17  1  0  0  0  0
M  END
>  <MODEL>
1

>  <REMARK>
 VINA RESULT:      -4.7      0.000      0.000
  Name = ox1_esm1_f8_ligand
  5 active torsions:
  status: ('A' for Active; 'I' for Inactive)
    1  A    between atoms: C_1  and  O_2
    2  A    between atoms: O_2  and  C_3
    3  A    between atoms: C_6  and  C_7
    4  A    between atoms: C_7  and  C_9
    5  A    between atoms: C_15  and  O_16
                            x       y       z     vdW  Elec       q    Type
                         _______ _______ _______ _____ _____    ______ ____

>  <TORSDO>
F 4

$$$$
ox1_esm1_f8_ligand
 OpenBabel10092621183D

 18 19  0  0  0  0  0  0  0  0999 V2000
    8.6600   -6.0470   -4.5870 C   0  0  0  0  0  0  0  0  0  0  0  0
    7.9700   -5.6690   -3.4340 C   0  0  0  0  0  3  0  0  0  0  0  0
    6.7700   -6.2850   -3.1070 C   0  0  0  0  0  3  0  0  0  0  0  0
    6.2450   -7.2870   -3.9050 C   0  0  0  0  0  0  0  0  0  0  0  0
    6.9320   -7.6690   -5.0750 C   0  0  0  0  0  0  0  0  0  0  0  0
    8.1330   -7.0400   -5.3970 C   0  0  0  0  0  3  0  0  0  0  0  0
   10.7490   -5.9490   -5.8300 C   0  0  0  0  0  1  0  0  0  0  0  0
    9.8400   -5.4190   -4.8620 O   0  0  0  0  0  0  0  0  0  0  0  0
    4.9560   -7.9570   -3.5340 C   0  0  0  0  0  0  0  0  0  0  0  0
    4.9630   -9.1460   -3.2260 O   0  0  0  0  0  0  0  0  0  0  0  0
    3.6670   -7.2050   -3.5580 C   0  0  0  0  0  0  0  0  0  0  0  0
    3.3680   -6.3720   -4.5730 C   0  0  0  0  0  3  0  0  0  0  0  0
    2.1800   -5.6710   -4.6810 C   0  0  0  0  0  3  0  0  0  0  0  0
    1.2500   -5.7910   -3.6760 C   0  0  0  0  0  3  0  0  0  0  0  0
    1.5250   -6.6280   -2.6030 C   0  0  0  0  0  3  0  0  0  0  0  0
    2.7330   -7.3230   -2.5520 C   0  0  0  0  0  3  0  0  0  0  0  0
    6.4060   -8.6440   -5.8730 O   0  0  0  0  0  0  0  0  0  0  0  0
    5.7530   -9.2890   -5.5010 H   0  0  0  0  0  0  0  0  0  0  0  0
  1  2  1  0  0  0  0
  2  3  2  0  0  0  0
  4  9  1  0  0  0  0
  4  3  1  0  0  0  0
  5  4  2  0  0  0  0
  6  5  1  0  0  0  0
  6  1  2  0  0  0  0
  7  8  1  0  0  0  0
  8  1  1  0  0  0  0
  9 10  2  0  0  0  0
 11  9  1  0  0  0  0
 11 16  1  0  0  0  0
 12 11  2  0  0  0  0
 13 12  1  0  0  0  0
 13 14  2  0  0  0  0
 14 15  1  0  0  0  0
 15 16  2  0  0  0  0
 17 18  1  0  0  0  0
 17  5  1  0  0  0  0
M  END
>  <MODEL>
2

>  <REMARK>
 VINA RESULT:      -4.7      0.531      1.258
  Name = ox1_esm1_f8_ligand
  5 active torsions:
  status: ('A' for Active; 'I' for Inactive)
    1  A    between atoms: C_1  and  O_2
    2  A    between atoms: O_2  and  C_3
    3  A    between atoms: C_6  and  C_7
    4  A    between atoms: C_7  and  C_9
    5  A    between atoms: C_15  and  O_16
                            x       y       z     vdW  Elec       q    Type
                         _______ _______ _______ _____ _____    ______ ____

>  <TORSDO>
F 4

$$$$
ox1_esm1_f8_ligand
 OpenBabel10092621183D

 18 19  0  0  0  0  0  0  0  0999 V2000
    1.5710   -6.0740   -3.5320 C   0  0  0  0  0  0  0  0  0  0  0  0
    2.3840   -5.8550   -4.6440 C   0  0  0  0  0  3  0  0  0  0  0  0
    3.6190   -6.4820   -4.7400 C   0  0  0  0  0  3  0  0  0  0  0  0
    4.0580   -7.3410   -3.7470 C   0  0  0  0  0  0  0  0  0  0  0  0
    3.2450   -7.5620   -2.6160 C   0  0  0  0  0  0  0  0  0  0  0  0
    2.0110   -6.9230   -2.5280 C   0  0  0  0  0  3  0  0  0  0  0  0
   -0.7050   -5.8320   -4.3560 C   0  0  0  0  0  1  0  0  0  0  0  0
    0.3620   -5.4420   -3.4870 O   0  0  0  0  0  0  0  0  0  0  0  0
    5.3860   -8.0260   -3.8670 C   0  0  0  0  0  0  0  0  0  0  0  0
    5.4470   -9.2460   -3.7450 O   0  0  0  0  0  0  0  0  0  0  0  0
    6.6340   -7.2420   -4.1090 C   0  0  0  0  0  0  0  0  0  0  0  0
    7.4990   -7.5970   -5.0790 C   0  0  0  0  0  3  0  0  0  0  0  0
    8.6540   -6.9010   -5.3840 C   0  0  0  0  0  3  0  0  0  0  0  0
    8.9750   -5.7950   -4.6340 C   0  0  0  0  0  3  0  0  0  0  0  0
    8.1180   -5.4030   -3.6150 C   0  0  0  0  0  3  0  0  0  0  0  0
    6.9580   -6.1340   -3.3590 C   0  0  0  0  0  3  0  0  0  0  0  0
    3.6850   -8.3950   -1.6280 O   0  0  0  0  0  0  0  0  0  0  0  0
    4.3020   -8.0540   -0.9320 H   0  0  0  0  0  0  0  0  0  0  0  0
  1  8  1  0  0  0  0
  1  6  1  0  0  0  0
  2  1  2  0  0  0  0
  3  2  1  0  0  0  0
  3  4  2  0  0  0  0
  4  5  1  0  0  0  0
  5  6  2  0  0  0  0
  5 17  1  0  0  0  0
  7  8  1  0  0  0  0
  9  4  1  0  0  0  0
  9 10  2  0  0  0  0
 11  9  1  0  0  0  0
 11 16  1  0  0  0  0
 12 11  2  0  0  0  0
 13 12  1  0  0  0  0
 13 14  2  0  0  0  0
 14 15  1  0  0  0  0
 15 16  2  0  0  0  0
 17 18  1  0  0  0  0
M  END
>  <MODEL>
3

>  <REMARK>
 VINA RESULT:      -4.4      1.678      6.038
  Name = ox1_esm1_f8_ligand
  5 active torsions:
  status: ('A' for Active; 'I' for Inactive)
    1  A    between atoms: C_1  and  O_2
    2  A    between atoms: O_2  and  C_3
    3  A    between atoms: C_6  and  C_7
    4  A    between atoms: C_7  and  C_9
    5  A    between atoms: C_15  and  O_16
                            x       y       z     vdW  Elec       q    Type
                         _______ _______ _______ _____ _____    ______ ____

>  <TORSDO>
F 4

$$$$
ox1_esm1_f8_ligand
 OpenBabel10092621183D

 18 19  0  0  0  0  0  0  0  0999 V2000
    8.5080   -7.5380   -3.3780 C   0  0  0  0  0  0  0  0  0  0  0  0
    7.6490   -6.4460   -3.2500 C   0  0  0  0  0  3  0  0  0  0  0  0
    6.3620   -6.5080   -3.7660 C   0  0  0  0  0  3  0  0  0  0  0  0
    5.9050   -7.6500   -4.4000 C   0  0  0  0  0  0  0  0  0  0  0  0
    6.7700   -8.7550   -4.5410 C   0  0  0  0  0  0  0  0  0  0  0  0
    8.0610   -8.6800   -4.0240 C   0  0  0  0  0  3  0  0  0  0  0  0
   10.3540   -6.1540   -2.6040 C   0  0  0  0  0  1  0  0  0  0  0  0
    9.7610   -7.4330   -2.8470 O   0  0  0  0  0  0  0  0  0  0  0  0
    4.5080   -7.7120   -4.9400 C   0  0  0  0  0  0  0  0  0  0  0  0
    4.3030   -8.2660   -6.0160 O   0  0  0  0  0  0  0  0  0  0  0  0
    3.3710   -7.0890   -4.1990 C   0  0  0  0  0  0  0  0  0  0  0  0
    2.9350   -7.6080   -3.0350 C   0  0  0  0  0  3  0  0  0  0  0  0
    1.9130   -7.0660   -2.2760 C   0  0  0  0  0  3  0  0  0  0  0  0
    1.2640   -5.9490   -2.7450 C   0  0  0  0  0  3  0  0  0  0  0  0
    1.6730   -5.3910   -3.9490 C   0  0  0  0  0  3  0  0  0  0  0  0
    2.7190   -5.9700   -4.6670 C   0  0  0  0  0  3  0  0  0  0  0  0
    6.3270   -9.8750   -5.1830 O   0  0  0  0  0  0  0  0  0  0  0  0
    6.9450  -10.6320   -5.3410 H   0  0  0  0  0  0  0  0  0  0  0  0
  1  2  1  0  0  0  0
  1  8  1  0  0  0  0
  3  2  2  0  0  0  0
  4  3  1  0  0  0  0
  5  4  2  0  0  0  0
  5  6  1  0  0  0  0
  6  1  2  0  0  0  0
  8  7  1  0  0  0  0
  9  4  1  0  0  0  0
  9 11  1  0  0  0  0
 10  9  2  0  0  0  0
 11 12  1  0  0  0  0
 12 13  2  0  0  0  0
 14 13  1  0  0  0  0
 15 14  2  0  0  0  0
 16 11  2  0  0  0  0
 16 15  1  0  0  0  0
 17  5  1  0  0  0  0
 18 17  1  0  0  0  0
M  END
>  <MODEL>
4

>  <REMARK>
 VINA RESULT:      -4.3      1.508      1.604
  Name = ox1_esm1_f8_ligand
  5 active torsions:
  status: ('A' for Active; 'I' for Inactive)
    1  A    between atoms: C_1  and  O_2
    2  A    between atoms: O_2  and  C_3
    3  A    between atoms: C_6  and  C_7
    4  A    between atoms: C_7  and  C_9
    5  A    between atoms: C_15  and  O_16
                            x       y       z     vdW  Elec       q    Type
                         _______ _______ _______ _____ _____    ______ ____

>  <TORSDO>
F 4

$$$$
ox1_esm1_f8_ligand
 OpenBabel10092621183D

 18 19  0  0  0  0  0  0  0  0999 V2000
    8.2650   -6.4100   -1.0410 C   0  0  0  0  0  0  0  0  0  0  0  0
    7.3040   -7.4050   -0.8600 C   0  0  0  0  0  3  0  0  0  0  0  0
    6.3820   -7.6750   -1.8620 C   0  0  0  0  0  3  0  0  0  0  0  0
    6.4080   -6.9770   -3.0580 C   0  0  0  0  0  0  0  0  0  0  0  0
    7.3720   -5.9650   -3.2460 C   0  0  0  0  0  0  0  0  0  0  0  0
    8.2880   -5.6980   -2.2300 C   0  0  0  0  0  3  0  0  0  0  0  0
    9.8020   -7.2750    0.6350 C   0  0  0  0  0  1  0  0  0  0  0  0
    9.1550   -6.1870   -0.0300 O   0  0  0  0  0  0  0  0  0  0  0  0
    5.4180   -7.2880   -4.1400 C   0  0  0  0  0  0  0  0  0  0  0  0
    5.8090   -7.8130   -5.1790 O   0  0  0  0  0  0  0  0  0  0  0  0
    3.9740   -6.9460   -3.9800 C   0  0  0  0  0  0  0  0  0  0  0  0
    3.2690   -7.3920   -2.9230 C   0  0  0  0  0  3  0  0  0  0  0  0
    1.9400   -7.0870   -2.6900 C   0  0  0  0  0  3  0  0  0  0  0  0
    1.2700   -6.3130   -3.6060 C   0  0  0  0  0  3  0  0  0  0  0  0
    1.9570   -5.8450   -4.7190 C   0  0  0  0  0  3  0  0  0  0  0  0
    3.3010   -6.1700   -4.8970 C   0  0  0  0  0  3  0  0  0  0  0  0
    7.3860   -5.2630   -4.4160 O   0  0  0  0  0  0  0  0  0  0  0  0
    7.1450   -5.7120   -5.2650 H   0  0  0  0  0  0  0  0  0  0  0  0
  1  2  1  0  0  0  0
  1  8  1  0  0  0  0
  3  2  2  0  0  0  0
  4  3  1  0  0  0  0
  5  4  2  0  0  0  0
  5  6  1  0  0  0  0
  6  1  2  0  0  0  0
  8  7  1  0  0  0  0
  9 11  1  0  0  0  0
  9  4  1  0  0  0  0
 10  9  2  0  0  0  0
 11 12  1  0  0  0  0
 12 13  2  0  0  0  0
 14 13  1  0  0  0  0
 15 14  2  0  0  0  0
 16 15  1  0  0  0  0
 16 11  2  0  0  0  0
 17  5  1  0  0  0  0
 18 17  1  0  0  0  0
M  END
>  <MODEL>
5

>  <REMARK>
 VINA RESULT:      -4.3      2.216      2.814
  Name = ox1_esm1_f8_ligand
  5 active torsions:
  status: ('A' for Active; 'I' for Inactive)
    1  A    between atoms: C_1  and  O_2
    2  A    between atoms: O_2  and  C_3
    3  A    between atoms: C_6  and  C_7
    4  A    between atoms: C_7  and  C_9
    5  A    between atoms: C_15  and  O_16
                            x       y       z     vdW  Elec       q    Type
                         _______ _______ _______ _____ _____    ______ ____

>  <TORSDO>
F 4

$$$$
ox1_esm1_f8_ligand
 OpenBabel10092621183D

 18 19  0  0  0  0  0  0  0  0999 V2000
    7.9840   -3.1720    1.0500 C   0  0  0  0  0  0  0  0  0  0  0  0
    8.4820   -4.4160    0.6610 C   0  0  0  0  0  3  0  0  0  0  0  0
    9.0430   -4.5800   -0.5980 C   0  0  0  0  0  3  0  0  0  0  0  0
    9.1320   -3.5170   -1.4800 C   0  0  0  0  0  0  0  0  0  0  0  0
    8.6240   -2.2580   -1.0970 C   0  0  0  0  0  0  0  0  0  0  0  0
    8.0580   -2.1070    0.1670 C   0  0  0  0  0  3  0  0  0  0  0  0
    6.1440   -2.5110    2.4970 C   0  0  0  0  0  1  0  0  0  0  0  0
    7.4500   -3.0590    2.3010 O   0  0  0  0  0  0  0  0  0  0  0  0
    9.7540   -3.7000   -2.8310 C   0  0  0  0  0  0  0  0  0  0  0  0
   10.6390   -2.9310   -3.1950 O   0  0  0  0  0  0  0  0  0  0  0  0
    9.2960   -4.7880   -3.7450 C   0  0  0  0  0  0  0  0  0  0  0  0
   10.1090   -5.2820   -4.6990 C   0  0  0  0  0  3  0  0  0  0  0  0
    9.7670   -6.3110   -5.5570 C   0  0  0  0  0  3  0  0  0  0  0  0
    8.5060   -6.8500   -5.4710 C   0  0  0  0  0  3  0  0  0  0  0  0
    7.6300   -6.3590   -4.5110 C   0  0  0  0  0  3  0  0  0  0  0  0
    8.0320   -5.3290   -3.6620 C   0  0  0  0  0  3  0  0  0  0  0  0
    8.6940   -1.2130   -1.9730 O   0  0  0  0  0  0  0  0  0  0  0  0
    7.8960   -0.6490   -2.1350 H   0  0  0  0  0  0  0  0  0  0  0  0
  1  8  1  0  0  0  0
  2  1  1  0  0  0  0
  3  2  2  0  0  0  0
  4  5  2  0  0  0  0
  4  3  1  0  0  0  0
  5  6  1  0  0  0  0
  6  1  2  0  0  0  0
  8  7  1  0  0  0  0
  9  4  1  0  0  0  0
 10  9  2  0  0  0  0
 11 16  1  0  0  0  0
 11  9  1  0  0  0  0
 12 11  2  0  0  0  0
 13 14  2  0  0  0  0
 13 12  1  0  0  0  0
 14 15  1  0  0  0  0
 15 16  2  0  0  0  0
 17  5  1  0  0  0  0
 18 17  1  0  0  0  0
M  END
>  <MODEL>
6

>  <REMARK>
 VINA RESULT:      -4.3      4.441      6.958
  Name = ox1_esm1_f8_ligand
  5 active torsions:
  status: ('A' for Active; 'I' for Inactive)
    1  A    between atoms: C_1  and  O_2
    2  A    between atoms: O_2  and  C_3
    3  A    between atoms: C_6  and  C_7
    4  A    between atoms: C_7  and  C_9
    5  A    between atoms: C_15  and  O_16
                            x       y       z     vdW  Elec       q    Type
                         _______ _______ _______ _____ _____    ______ ____

>  <TORSDO>
F 4

$$$$
ox1_esm1_f8_ligand
 OpenBabel10092621183D

 18 19  0  0  0  0  0  0  0  0999 V2000
    1.8240   -5.8550   -3.2820 C   0  0  0  0  0  0  0  0  0  0  0  0
    0.8360   -5.1420   -2.6020 C   0  0  0  0  0  3  0  0  0  0  0  0
    0.3430   -5.6140   -1.3930 C   0  0  0  0  0  3  0  0  0  0  0  0
    0.8290   -6.7840   -0.8360 C   0  0  0  0  0  0  0  0  0  0  0  0
    1.8230   -7.5140   -1.5200 C   0  0  0  0  0  0  0  0  0  0  0  0
    2.3050   -7.0340   -2.7360 C   0  0  0  0  0  3  0  0  0  0  0  0
    2.7700   -6.2070   -5.4960 C   0  0  0  0  0  1  0  0  0  0  0  0
    2.2830   -5.3460   -4.4630 O   0  0  0  0  0  0  0  0  0  0  0  0
    0.3020   -7.2760    0.4780 C   0  0  0  0  0  0  0  0  0  0  0  0
   -0.0250   -8.4540    0.5910 O   0  0  0  0  0  0  0  0  0  0  0  0
    0.1480   -6.3500    1.6380 C   0  0  0  0  0  0  0  0  0  0  0  0
    1.1560   -5.5410    2.0180 C   0  0  0  0  0  3  0  0  0  0  0  0
    1.0740   -4.6320    3.0590 C   0  0  0  0  0  3  0  0  0  0  0  0
   -0.0900   -4.5660    3.7870 C   0  0  0  0  0  3  0  0  0  0  0  0
   -1.1480   -5.3940    3.4370 C   0  0  0  0  0  3  0  0  0  0  0  0
   -1.0170   -6.2820    2.3700 C   0  0  0  0  0  3  0  0  0  0  0  0
    2.2900   -8.6780   -0.9820 O   0  0  0  0  0  0  0  0  0  0  0  0
    1.8030   -9.5260   -1.1390 H   0  0  0  0  0  0  0  0  0  0  0  0
  1  6  2  0  0  0  0
  1  2  1  0  0  0  0
  2  3  2  0  0  0  0
  3  4  1  0  0  0  0
  4  9  1  0  0  0  0
  5 17  1  0  0  0  0
  5  4  2  0  0  0  0
  6  5  1  0  0  0  0
  7  8  1  0  0  0  0
  8  1  1  0  0  0  0
  9 10  2  0  0  0  0
  9 11  1  0  0  0  0
 11 12  2  0  0  0  0
 11 16  1  0  0  0  0
 12 13  1  0  0  0  0
 13 14  2  0  0  0  0
 15 14  1  0  0  0  0
 16 15  2  0  0  0  0
 18 17  1  0  0  0  0
M  END
>  <MODEL>
7

>  <REMARK>
 VINA RESULT:      -4.2      4.419      6.926
  Name = ox1_esm1_f8_ligand
  5 active torsions:
  status: ('A' for Active; 'I' for Inactive)
    1  A    between atoms: C_1  and  O_2
    2  A    between atoms: O_2  and  C_3
    3  A    between atoms: C_6  and  C_7
    4  A    between atoms: C_7  and  C_9
    5  A    between atoms: C_15  and  O_16
                            x       y       z     vdW  Elec       q    Type
                         _______ _______ _______ _____ _____    ______ ____

>  <TORSDO>
F 4

$$$$
ox1_esm1_f8_ligand
 OpenBabel10092621183D

 18 19  0  0  0  0  0  0  0  0999 V2000
    7.0090   -8.6270   -4.3120 C   0  0  0  0  0  0  0  0  0  0  0  0
    6.7120   -7.5390   -3.4920 C   0  0  0  0  0  3  0  0  0  0  0  0
    5.5130   -6.8550   -3.6460 C   0  0  0  0  0  3  0  0  0  0  0  0
    4.5910   -7.2460   -4.6020 C   0  0  0  0  0  0  0  0  0  0  0  0
    4.8870   -8.3410   -5.4400 C   0  0  0  0  0  0  0  0  0  0  0  0
    6.0950   -9.0150   -5.2800 C   0  0  0  0  0  3  0  0  0  0  0  0
    8.4060  -10.0940   -2.9640 C   0  0  0  0  0  1  0  0  0  0  0  0
    8.1950   -9.2730   -4.1160 O   0  0  0  0  0  0  0  0  0  0  0  0
    3.2930   -6.5110   -4.7500 C   0  0  0  0  0  0  0  0  0  0  0  0
    3.0070   -6.0090   -5.8340 O   0  0  0  0  0  0  0  0  0  0  0  0
    2.3590   -6.3630   -3.5950 C   0  0  0  0  0  0  0  0  0  0  0  0
    1.5780   -5.2730   -3.4700 C   0  0  0  0  0  3  0  0  0  0  0  0
    0.6650   -5.0830   -2.4480 C   0  0  0  0  0  3  0  0  0  0  0  0
    0.5630   -6.0420   -1.4680 C   0  0  0  0  0  3  0  0  0  0  0  0
    1.3610   -7.1750   -1.5520 C   0  0  0  0  0  3  0  0  0  0  0  0
    2.2550   -7.3220   -2.6120 C   0  0  0  0  0  3  0  0  0  0  0  0
    3.9870   -8.7160   -6.3950 O   0  0  0  0  0  0  0  0  0  0  0  0
    4.2980   -9.1720   -7.2170 H   0  0  0  0  0  0  0  0  0  0  0  0
  1  8  1  0  0  0  0
  1  2  1  0  0  0  0
  3  2  2  0  0  0  0
  4  3  1  0  0  0  0
  5  6  1  0  0  0  0
  5  4  2  0  0  0  0
  6  1  2  0  0  0  0
  8  7  1  0  0  0  0
  9  4  1  0  0  0  0
  9 11  1  0  0  0  0
 10  9  2  0  0  0  0
 11 12  2  0  0  0  0
 11 16  1  0  0  0  0
 12 13  1  0  0  0  0
 13 14  2  0  0  0  0
 15 14  1  0  0  0  0
 16 15  2  0  0  0  0
 17  5  1  0  0  0  0
 18 17  1  0  0  0  0
M  END
>  <MODEL>
8

>  <REMARK>
 VINA RESULT:      -4.2      2.263      3.043
  Name = ox1_esm1_f8_ligand
  5 active torsions:
  status: ('A' for Active; 'I' for Inactive)
    1  A    between atoms: C_1  and  O_2
    2  A    between atoms: O_2  and  C_3
    3  A    between atoms: C_6  and  C_7
    4  A    between atoms: C_7  and  C_9
    5  A    between atoms: C_15  and  O_16
                            x       y       z     vdW  Elec       q    Type
                         _______ _______ _______ _____ _____    ______ ____

>  <TORSDO>
F 4

$$$$
ox1_esm1_f8_ligand
 OpenBabel10092621183D

 18 19  0  0  0  0  0  0  0  0999 V2000
   -2.7320    5.6100   -0.1300 C   0  0  0  0  0  0  0  0  0  0  0  0
   -2.1830    6.1020    1.0550 C   0  0  0  0  0  3  0  0  0  0  0  0
   -2.9350    6.9230    1.8840 C   0  0  0  0  0  3  0  0  0  0  0  0
   -4.2390    7.2570    1.5600 C   0  0  0  0  0  0  0  0  0  0  0  0
   -4.7990    6.7700    0.3600 C   0  0  0  0  0  0  0  0  0  0  0  0
   -4.0320    5.9510   -0.4670 C   0  0  0  0  0  3  0  0  0  0  0  0
   -2.5180    3.6730   -1.5860 C   0  0  0  0  0  1  0  0  0  0  0  0
   -1.9570    4.7990   -0.9070 O   0  0  0  0  0  0  0  0  0  0  0  0
   -5.0480    8.1320    2.4690 C   0  0  0  0  0  0  0  0  0  0  0  0
   -5.1960    9.3180    2.1880 O   0  0  0  0  0  0  0  0  0  0  0  0
   -5.6530    7.5860    3.7190 C   0  0  0  0  0  0  0  0  0  0  0  0
   -6.0160    8.4020    4.7280 C   0  0  0  0  0  3  0  0  0  0  0  0
   -6.6140    7.9720    5.8990 C   0  0  0  0  0  3  0  0  0  0  0  0
   -6.8230    6.6260    6.0780 C   0  0  0  0  0  3  0  0  0  0  0  0
   -6.4500    5.7490    5.0680 C   0  0  0  0  0  3  0  0  0  0  0  0
   -5.8640    6.2370    3.9010 C   0  0  0  0  0  3  0  0  0  0  0  0
   -6.0780    7.1130    0.0300 O   0  0  0  0  0  0  0  0  0  0  0  0
   -6.2430    7.7600   -0.7010 H   0  0  0  0  0  0  0  0  0  0  0  0
  1  2  1  0  0  0  0
  2  3  2  0  0  0  0
  4  3  1  0  0  0  0
  4  9  1  0  0  0  0
  5  4  2  0  0  0  0
  6  1  2  0  0  0  0
  6  5  1  0  0  0  0
  7  8  1  0  0  0  0
  8  1  1  0  0  0  0
  9 11  1  0  0  0  0
 10  9  2  0  0  0  0
 11 16  2  0  0  0  0
 11 12  1  0  0  0  0
 12 13  2  0  0  0  0
 13 14  1  0  0  0  0
 15 14  2  0  0  0  0
 16 15  1  0  0  0  0
 17  5  1  0  0  0  0
 18 17  1  0  0  0  0
M  END
>  <MODEL>
9

>  <REMARK>
 VINA RESULT:      -4.2     16.147     18.403
  Name = ox1_esm1_f8_ligand
  5 active torsions:
  status: ('A' for Active; 'I' for Inactive)
    1  A    between atoms: C_1  and  O_2
    2  A    between atoms: O_2  and  C_3
    3  A    between atoms: C_6  and  C_7
    4  A    between atoms: C_7  and  C_9
    5  A    between atoms: C_15  and  O_16
                            x       y       z     vdW  Elec       q    Type
                         _______ _______ _______ _____ _____    ______ ____

>  <TORSDO>
F 4

$$$$
