ox2_esm1_f8_ligand
 OpenBabel10092621203D

 18 19  0  0  0  0  0  0  0  0999 V2000
   -3.0120    7.5780    5.1170 C   0  0  0  0  0  0  0  0  0  0  0  0
   -2.0580    7.4070    4.1170 C   0  0  0  0  0  3  0  0  0  0  0  0
   -0.9710    6.5770    4.3250 C   0  0  0  0  0  3  0  0  0  0  0  0
   -0.8150    5.9220    5.5330 C   0  0  0  0  0  0  0  0  0  0  0  0
   -1.7730    6.0870    6.5440 C   0  0  0  0  0  0  0  0  0  0  0  0
   -2.8700    6.9180    6.3180 C   0  0  0  0  0  3  0  0  0  0  0  0
   -5.0810    8.0530    3.9420 C   0  0  0  0  0  1  0  0  0  0  0  0
   -4.1060    8.3790    4.9590 O   0  0  0  0  0  0  0  0  0  0  0  0
    0.3600    5.0290    5.7770 C   0  0  0  0  0  0  0  0  0  0  0  0
    1.0440    5.1960    6.7650 O   0  0  0  0  0  0  0  0  0  0  0  0
    0.6990    3.9360    4.8440 C   0  0  0  0  0  0  0  0  0  0  0  0
    0.0880    2.6940    4.9840 C   0  0  0  0  0  3  0  0  0  0  0  0
    0.4020    1.6670    4.0970 C   0  0  0  0  0  3  0  0  0  0  0  0
    1.3450    1.8520    3.0960 C   0  0  0  0  0  3  0  0  0  0  0  0
    1.9800    3.0800    2.9890 C   0  0  0  0  0  3  0  0  0  0  0  0
    1.6560    4.1220    3.8580 C   0  0  0  0  0  3  0  0  0  0  0  0
   -1.6140    5.4260    7.7320 O   0  0  0  0  0  0  0  0  0  0  0  0
   -2.3260    4.8230    8.0620 H   0  0  0  0  0  0  0  0  0  0  0  0
  1  6  1  0  0  0  0
  2  3  1  0  0  0  0
  2  1  2  0  0  0  0
  3  4  2  0  0  0  0
  4  9  1  0  0  0  0
  4  5  1  0  0  0  0
  5 17  1  0  0  0  0
  6  5  2  0  0  0  0
  7  8  1  0  0  0  0
  8  1  1  0  0  0  0
  9 10  2  0  0  0  0
 11 12  1  0  0  0  0
 11  9  1  0  0  0  0
 13 12  2  0  0  0  0
 14 13  1  0  0  0  0
 15 14  2  0  0  0  0
 15 16  1  0  0  0  0
 16 11  2  0  0  0  0
 17 18  1  0  0  0  0
M  END
>  <MODEL>
1

>  <REMARK>
 VINA RESULT:      -5.5      0.000      0.000
  Name = ox2_esm1_f8_ligand
  5 active torsions:
  status: ('A' for Active; 'I' for Inactive)
    1  A    between atoms: C_1  and  O_2
    2  A    between atoms: O_2  and  C_3
    3  A    between atoms: C_6  and  C_7
    4  A    between atoms: C_7  and  C_9
    5  A    between atoms: C_15  and  O_16
                            x       y       z     vdW  Elec       q    Type
                         _______ _______ _______ _____ _____    ______ ____

>  <TORSDO>
F 4

$$$$
ox2_esm1_f8_ligand
 OpenBabel10092621203D

 18 19  0  0  0  0  0  0  0  0999 V2000
   -2.9760    7.5880    5.1060 C   0  0  0  0  0  0  0  0  0  0  0  0
   -1.9960    7.4130    4.1320 C   0  0  0  0  0  3  0  0  0  0  0  0
   -0.9260    6.5680    4.3640 C   0  0  0  0  0  3  0  0  0  0  0  0
   -0.8140    5.9000    5.5710 C   0  0  0  0  0  0  0  0  0  0  0  0
   -1.7980    6.0690    6.5550 C   0  0  0  0  0  0  0  0  0  0  0  0
   -2.8770    6.9160    6.3050 C   0  0  0  0  0  3  0  0  0  0  0  0
   -5.0790    8.0230    3.9770 C   0  0  0  0  0  1  0  0  0  0  0  0
   -4.0550    8.4040    4.9230 O   0  0  0  0  0  0  0  0  0  0  0  0
    0.3420    4.9910    5.8400 C   0  0  0  0  0  0  0  0  0  0  0  0
    0.9950    5.1350    6.8530 O   0  0  0  0  0  0  0  0  0  0  0  0
    0.7000    3.9070    4.9020 C   0  0  0  0  0  0  0  0  0  0  0  0
    1.6410    4.1400    3.9040 C   0  0  0  0  0  3  0  0  0  0  0  0
    1.9840    3.1150    3.0260 C   0  0  0  0  0  3  0  0  0  0  0  0
    1.3740    1.8710    3.1090 C   0  0  0  0  0  3  0  0  0  0  0  0
    0.4060    1.6600    4.0790 C   0  0  0  0  0  3  0  0  0  0  0  0
    0.0720    2.6740    4.9780 C   0  0  0  0  0  3  0  0  0  0  0  0
   -1.6820    5.3970    7.7410 O   0  0  0  0  0  0  0  0  0  0  0  0
   -1.4570    4.4330    7.7430 H   0  0  0  0  0  0  0  0  0  0  0  0
  1  6  1  0  0  0  0
  2  3  1  0  0  0  0
  2  1  2  0  0  0  0
  3  4  2  0  0  0  0
  4  9  1  0  0  0  0
  4  5  1  0  0  0  0
  5 17  1  0  0  0  0
  6  5  2  0  0  0  0
  7  8  1  0  0  0  0
  8  1  1  0  0  0  0
  9 10  2  0  0  0  0
 11 16  1  0  0  0  0
 11  9  1  0  0  0  0
 12 11  2  0  0  0  0
 13 14  2  0  0  0  0
 13 12  1  0  0  0  0
 14 15  1  0  0  0  0
 15 16  2  0  0  0  0
 17 18  1  0  0  0  0
M  END
>  <MODEL>
2

>  <REMARK>
 VINA RESULT:      -5.5      0.057      1.164
  Name = ox2_esm1_f8_ligand
  5 active torsions:
  status: ('A' for Active; 'I' for Inactive)
    1  A    between atoms: C_1  and  O_2
    2  A    between atoms: O_2  and  C_3
    3  A    between atoms: C_6  and  C_7
    4  A    between atoms: C_7  and  C_9
    5  A    between atoms: C_15  and  O_16
                            x       y       z     vdW  Elec       q    Type
                         _______ _______ _______ _____ _____    ______ ____

>  <TORSDO>
F 4

$$$$
ox2_esm1_f8_ligand
 OpenBabel10092621203D

 18 19  0  0  0  0  0  0  0  0999 V2000
   -3.8850    7.8700    4.9940 C   0  0  0  0  0  0  0  0  0  0  0  0
   -3.1400    7.5150    3.8720 C   0  0  0  0  0  3  0  0  0  0  0  0
   -1.9040    6.9120    4.0200 C   0  0  0  0  0  3  0  0  0  0  0  0
   -1.3920    6.6700    5.2820 C   0  0  0  0  0  0  0  0  0  0  0  0
   -2.1380    7.0220    6.4160 C   0  0  0  0  0  0  0  0  0  0  0  0
   -3.3870    7.6200    6.2540 C   0  0  0  0  0  3  0  0  0  0  0  0
   -5.7010    8.6720    3.6000 C   0  0  0  0  0  1  0  0  0  0  0  0
   -5.1130    8.4600    4.9030 O   0  0  0  0  0  0  0  0  0  0  0  0
   -0.0530    6.0280    5.4570 C   0  0  0  0  0  0  0  0  0  0  0  0
    0.8940    6.7010    5.8090 O   0  0  0  0  0  0  0  0  0  0  0  0
    0.1410    4.5820    5.2220 C   0  0  0  0  0  0  0  0  0  0  0  0
    0.8530    4.1530    4.1060 C   0  0  0  0  0  3  0  0  0  0  0  0
    1.0420    2.7900    3.8920 C   0  0  0  0  0  3  0  0  0  0  0  0
    0.5000    1.8490    4.7560 C   0  0  0  0  0  3  0  0  0  0  0  0
   -0.2440    2.2840    5.8430 C   0  0  0  0  0  3  0  0  0  0  0  0
   -0.4210    3.6480    6.0790 C   0  0  0  0  0  3  0  0  0  0  0  0
   -1.6260    6.7690    7.6590 O   0  0  0  0  0  0  0  0  0  0  0  0
   -2.1750    6.2960    8.3340 H   0  0  0  0  0  0  0  0  0  0  0  0
  1  6  1  0  0  0  0
  2  3  1  0  0  0  0
  2  1  2  0  0  0  0
  3  4  2  0  0  0  0
  4  9  1  0  0  0  0
  4  5  1  0  0  0  0
  5 17  1  0  0  0  0
  6  5  2  0  0  0  0
  7  8  1  0  0  0  0
  8  1  1  0  0  0  0
  9 10  2  0  0  0  0
 11  9  1  0  0  0  0
 11 16  1  0  0  0  0
 12 11  2  0  0  0  0
 13 12  1  0  0  0  0
 13 14  2  0  0  0  0
 14 15  1  0  0  0  0
 15 16  2  0  0  0  0
 17 18  1  0  0  0  0
M  END
>  <MODEL>
3

>  <REMARK>
 VINA RESULT:      -5.3      1.052      1.660
  Name = ox2_esm1_f8_ligand
  5 active torsions:
  status: ('A' for Active; 'I' for Inactive)
    1  A    between atoms: C_1  and  O_2
    2  A    between atoms: O_2  and  C_3
    3  A    between atoms: C_6  and  C_7
    4  A    between atoms: C_7  and  C_9
    5  A    between atoms: C_15  and  O_16
                            x       y       z     vdW  Elec       q    Type
                         _______ _______ _______ _____ _____    ______ ____

>  <TORSDO>
F 4

$$$$
ox2_esm1_f8_ligand
 OpenBabel10092621203D

 18 19  0  0  0  0  0  0  0  0999 V2000
    0.6130    2.5140    5.2440 C   0  0  0  0  0  0  0  0  0  0  0  0
    1.0230    3.5760    4.4410 C   0  0  0  0  0  3  0  0  0  0  0  0
    0.5230    4.8470    4.6580 C   0  0  0  0  0  3  0  0  0  0  0  0
   -0.3990    5.0720    5.6660 C   0  0  0  0  0  0  0  0  0  0  0  0
   -0.8140    4.0080    6.4800 C   0  0  0  0  0  0  0  0  0  0  0  0
   -0.2940    2.7340    6.2570 C   0  0  0  0  0  3  0  0  0  0  0  0
    1.6510    0.8610    3.8030 C   0  0  0  0  0  1  0  0  0  0  0  0
    1.0820    1.2430    5.0760 O   0  0  0  0  0  0  0  0  0  0  0  0
   -0.9560    6.4380    5.9060 C   0  0  0  0  0  0  0  0  0  0  0  0
   -0.4250    7.1680    6.7180 O   0  0  0  0  0  0  0  0  0  0  0  0
   -2.1360    6.9270    5.1640 C   0  0  0  0  0  0  0  0  0  0  0  0
   -3.3040    7.2390    5.8520 C   0  0  0  0  0  3  0  0  0  0  0  0
   -4.4130    7.7080    5.1520 C   0  0  0  0  0  3  0  0  0  0  0  0
   -4.3820    7.8350    3.7700 C   0  0  0  0  0  3  0  0  0  0  0  0
   -3.2280    7.4820    3.0870 C   0  0  0  0  0  3  0  0  0  0  0  0
   -2.1050    7.0320    3.7820 C   0  0  0  0  0  3  0  0  0  0  0  0
   -1.7180    4.2430    7.4800 O   0  0  0  0  0  0  0  0  0  0  0  0
   -1.9140    3.5380    8.1460 H   0  0  0  0  0  0  0  0  0  0  0  0
  1  6  1  0  0  0  0
  2  3  1  0  0  0  0
  2  1  2  0  0  0  0
  3  4  2  0  0  0  0
  4  9  1  0  0  0  0
  4  5  1  0  0  0  0
  5 17  1  0  0  0  0
  6  5  2  0  0  0  0
  7  8  1  0  0  0  0
  8  1  1  0  0  0  0
  9 10  2  0  0  0  0
 11 12  1  0  0  0  0
 11  9  1  0  0  0  0
 13 12  2  0  0  0  0
 14 13  1  0  0  0  0
 15 14  2  0  0  0  0
 15 16  1  0  0  0  0
 16 11  2  0  0  0  0
 17 18  1  0  0  0  0
M  END
>  <MODEL>
4

>  <REMARK>
 VINA RESULT:      -5.3      1.559      5.604
  Name = ox2_esm1_f8_ligand
  5 active torsions:
  status: ('A' for Active; 'I' for Inactive)
    1  A    between atoms: C_1  and  O_2
    2  A    between atoms: O_2  and  C_3
    3  A    between atoms: C_6  and  C_7
    4  A    between atoms: C_7  and  C_9
    5  A    between atoms: C_15  and  O_16
                            x       y       z     vdW  Elec       q    Type
                         _______ _______ _______ _____ _____    ______ ____

>  <TORSDO>
F 4

$$$$
ox2_esm1_f8_ligand
 OpenBabel10092621203D

 18 19  0  0  0  0  0  0  0  0999 V2000
   -5.5560    8.7320    4.7580 C   0  0  0  0  0  0  0  0  0  0  0  0
   -5.0680    7.7290    3.9240 C   0  0  0  0  0  3  0  0  0  0  0  0
   -3.7410    7.3440    4.0000 C   0  0  0  0  0  3  0  0  0  0  0  0
   -2.8860    7.9620    4.8950 C   0  0  0  0  0  0  0  0  0  0  0  0
   -3.3710    8.9710    5.7400 C   0  0  0  0  0  0  0  0  0  0  0  0
   -4.7130    9.3420    5.6610 C   0  0  0  0  0  3  0  0  0  0  0  0
   -7.7900    8.4750    3.8480 C   0  0  0  0  0  1  0  0  0  0  0  0
   -6.8570    9.1430    4.7280 O   0  0  0  0  0  0  0  0  0  0  0  0
   -1.4470    7.5630    4.9820 C   0  0  0  0  0  0  0  0  0  0  0  0
   -0.5850    8.3580    4.6690 O   0  0  0  0  0  0  0  0  0  0  0  0
   -1.0500    6.2210    5.4550 C   0  0  0  0  0  0  0  0  0  0  0  0
   -1.6420    5.6880    6.5960 C   0  0  0  0  0  3  0  0  0  0  0  0
   -1.2730    4.4190    7.0350 C   0  0  0  0  0  3  0  0  0  0  0  0
   -0.2950    3.6910    6.3720 C   0  0  0  0  0  3  0  0  0  0  0  0
    0.3200    4.2470    5.2600 C   0  0  0  0  0  3  0  0  0  0  0  0
   -0.0590    5.5080    4.7990 C   0  0  0  0  0  3  0  0  0  0  0  0
   -2.5180    9.5680    6.6280 O   0  0  0  0  0  0  0  0  0  0  0  0
   -1.8520   10.2260    6.3080 H   0  0  0  0  0  0  0  0  0  0  0  0
  1  6  1  0  0  0  0
  2  3  1  0  0  0  0
  2  1  2  0  0  0  0
  3  4  2  0  0  0  0
  4  9  1  0  0  0  0
  4  5  1  0  0  0  0
  5 17  1  0  0  0  0
  6  5  2  0  0  0  0
  7  8  1  0  0  0  0
  8  1  1  0  0  0  0
  9 11  1  0  0  0  0
 10  9  2  0  0  0  0
 11 12  1  0  0  0  0
 12 13  2  0  0  0  0
 14 13  1  0  0  0  0
 15 14  2  0  0  0  0
 16 15  1  0  0  0  0
 16 11  2  0  0  0  0
 18 17  1  0  0  0  0
M  END
>  <MODEL>
5

>  <REMARK>
 VINA RESULT:      -5.2      2.242      3.360
  Name = ox2_esm1_f8_ligand
  5 active torsions:
  status: ('A' for Active; 'I' for Inactive)
    1  A    between atoms: C_1  and  O_2
    2  A    between atoms: O_2  and  C_3
    3  A    between atoms: C_6  and  C_7
    4  A    between atoms: C_7  and  C_9
    5  A    between atoms: C_15  and  O_16
                            x       y       z     vdW  Elec       q    Type
                         _______ _______ _______ _____ _____    ______ ____

>  <TORSDO>
F 4

$$$$
ox2_esm1_f8_ligand
 OpenBabel10092621203D

 18 19  0  0  0  0  0  0  0  0999 V2000
   -1.9660    8.1920    5.6160 C   0  0  0  0  0  0  0  0  0  0  0  0
   -1.9070    7.3820    4.4850 C   0  0  0  0  0  3  0  0  0  0  0  0
   -0.8590    6.4960    4.3180 C   0  0  0  0  0  3  0  0  0  0  0  0
    0.1470    6.4170    5.2650 C   0  0  0  0  0  0  0  0  0  0  0  0
    0.0930    7.2280    6.4070 C   0  0  0  0  0  0  0  0  0  0  0  0
   -0.9750    8.1100    6.5690 C   0  0  0  0  0  3  0  0  0  0  0  0
   -4.3110    8.7600    5.3580 C   0  0  0  0  0  1  0  0  0  0  0  0
   -2.9830    9.0770    5.8330 O   0  0  0  0  0  0  0  0  0  0  0  0
    1.2920    5.4700    5.0920 C   0  0  0  0  0  0  0  0  0  0  0  0
    2.4170    5.8340    5.3650 O   0  0  0  0  0  0  0  0  0  0  0  0
    1.0800    4.0910    4.6070 C   0  0  0  0  0  0  0  0  0  0  0  0
    0.3330    3.1980    5.3690 C   0  0  0  0  0  3  0  0  0  0  0  0
    0.1280    1.9010    4.9060 C   0  0  0  0  0  3  0  0  0  0  0  0
    0.6880    1.4730    3.7110 C   0  0  0  0  0  3  0  0  0  0  0  0
    1.4660    2.3560    2.9780 C   0  0  0  0  0  3  0  0  0  0  0  0
    1.6600    3.6650    3.4220 C   0  0  0  0  0  3  0  0  0  0  0  0
    1.0870    7.1350    7.3420 O   0  0  0  0  0  0  0  0  0  0  0  0
    0.9860    7.5830    8.2190 H   0  0  0  0  0  0  0  0  0  0  0  0
  1  8  1  0  0  0  0
  1  6  1  0  0  0  0
  2  1  2  0  0  0  0
  3  2  1  0  0  0  0
  3  4  2  0  0  0  0
  4  5  1  0  0  0  0
  5  6  2  0  0  0  0
  5 17  1  0  0  0  0
  7  8  1  0  0  0  0
  9  4  1  0  0  0  0
  9 10  2  0  0  0  0
 11  9  1  0  0  0  0
 11 12  1  0  0  0  0
 13 12  2  0  0  0  0
 14 13  1  0  0  0  0
 15 16  1  0  0  0  0
 15 14  2  0  0  0  0
 16 11  2  0  0  0  0
 17 18  1  0  0  0  0
M  END
>  <MODEL>
6

>  <REMARK>
 VINA RESULT:      -5.1      1.427      1.503
  Name = ox2_esm1_f8_ligand
  5 active torsions:
  status: ('A' for Active; 'I' for Inactive)
    1  A    between atoms: C_1  and  O_2
    2  A    between atoms: O_2  and  C_3
    3  A    between atoms: C_6  and  C_7
    4  A    between atoms: C_7  and  C_9
    5  A    between atoms: C_15  and  O_16
                            x       y       z     vdW  Elec       q    Type
                         _______ _______ _______ _____ _____    ______ ____

>  <TORSDO>
F 4

$$$$
ox2_esm1_f8_ligand
 OpenBabel10092621203D

 18 19  0  0  0  0  0  0  0  0999 V2000
    1.9620    3.3020    4.2580 C   0  0  0  0  0  0  0  0  0  0  0  0
    0.7410    3.0600    4.8840 C   0  0  0  0  0  3  0  0  0  0  0  0
   -0.0230    4.1140    5.3510 C   0  0  0  0  0  3  0  0  0  0  0  0
    0.4240    5.4160    5.2130 C   0  0  0  0  0  0  0  0  0  0  0  0
    1.6510    5.6680    4.5820 C   0  0  0  0  0  0  0  0  0  0  0  0
    2.4070    4.5970    4.1060 C   0  0  0  0  0  3  0  0  0  0  0  0
    2.2380    0.9470    3.7450 C   0  0  0  0  0  1  0  0  0  0  0  0
    2.7500    2.2990    3.7730 O   0  0  0  0  0  0  0  0  0  0  0  0
   -0.3860    6.5650    5.7220 C   0  0  0  0  0  0  0  0  0  0  0  0
    0.0290    7.2280    6.6490 O   0  0  0  0  0  0  0  0  0  0  0  0
   -1.6830    6.9200    5.1090 C   0  0  0  0  0  0  0  0  0  0  0  0
   -1.7840    7.0340    3.7260 C   0  0  0  0  0  3  0  0  0  0  0  0
   -3.0090    7.3600    3.1490 C   0  0  0  0  0  3  0  0  0  0  0  0
   -4.1250    7.6090    3.9360 C   0  0  0  0  0  3  0  0  0  0  0  0
   -4.0050    7.5340    5.3160 C   0  0  0  0  0  3  0  0  0  0  0  0
   -2.7880    7.1870    5.9020 C   0  0  0  0  0  3  0  0  0  0  0  0
    2.0800    6.9600    4.4420 O   0  0  0  0  0  0  0  0  0  0  0  0
    2.2680    7.5080    5.2450 H   0  0  0  0  0  0  0  0  0  0  0  0
  1  2  1  0  0  0  0
  2  3  2  0  0  0  0
  4  3  1  0  0  0  0
  4  9  1  0  0  0  0
  5  4  2  0  0  0  0
  6  1  2  0  0  0  0
  6  5  1  0  0  0  0
  7  8  1  0  0  0  0
  8  1  1  0  0  0  0
  9 10  2  0  0  0  0
 11  9  1  0  0  0  0
 11 16  1  0  0  0  0
 12 11  2  0  0  0  0
 13 12  1  0  0  0  0
 13 14  2  0  0  0  0
 14 15  1  0  0  0  0
 15 16  2  0  0  0  0
 17  5  1  0  0  0  0
 17 18  1  0  0  0  0
M  END
>  <MODEL>
7

>  <REMARK>
 VINA RESULT:      -4.9      1.716      5.945
  Name = ox2_esm1_f8_ligand
  5 active torsions:
  status: ('A' for Active; 'I' for Inactive)
    1  A    between atoms: C_1  and  O_2
    2  A    between atoms: O_2  and  C_3
    3  A    between atoms: C_6  and  C_7
    4  A    between atoms: C_7  and  C_9
    5  A    between atoms: C_15  and  O_16
                            x       y       z     vdW  Elec       q    Type
                         _______ _______ _______ _____ _____    ______ ____

>  <TORSDO>
F 4

$$$$
ox2_esm1_f8_ligand
 OpenBabel10092621203D

 18 19  0  0  0  0  0  0  0  0999 V2000
    3.0100    3.9340    2.7820 C   0  0  0  0  0  0  0  0  0  0  0  0
    1.8710    3.1800    3.0540 C   0  0  0  0  0  3  0  0  0  0  0  0
    0.9830    3.5890    4.0330 C   0  0  0  0  0  3  0  0  0  0  0  0
    1.2270    4.7410    4.7590 C   0  0  0  0  0  0  0  0  0  0  0  0
    2.3700    5.5060    4.4890 C   0  0  0  0  0  0  0  0  0  0  0  0
    3.2520    5.0890    3.4930 C   0  0  0  0  0  3  0  0  0  0  0  0
    4.6980    4.6050    1.1740 C   0  0  0  0  0  1  0  0  0  0  0  0
    3.9130    3.5790    1.8220 O   0  0  0  0  0  0  0  0  0  0  0  0
    0.2820    5.1890    5.8280 C   0  0  0  0  0  0  0  0  0  0  0  0
    0.4950    4.8870    6.9830 O   0  0  0  0  0  0  0  0  0  0  0  0
   -0.9060    6.0080    5.5070 C   0  0  0  0  0  0  0  0  0  0  0  0
   -1.0470    6.5500    4.2330 C   0  0  0  0  0  3  0  0  0  0  0  0
   -2.1710    7.3140    3.9300 C   0  0  0  0  0  3  0  0  0  0  0  0
   -3.1370    7.5750    4.8920 C   0  0  0  0  0  3  0  0  0  0  0  0
   -2.9680    7.0660    6.1710 C   0  0  0  0  0  3  0  0  0  0  0  0
   -1.8560    6.2810    6.4780 C   0  0  0  0  0  3  0  0  0  0  0  0
    2.5970    6.6480    5.2070 O   0  0  0  0  0  0  0  0  0  0  0  0
    3.0000    7.4380    4.7670 H   0  0  0  0  0  0  0  0  0  0  0  0
  1  2  2  0  0  0  0
  1  6  1  0  0  0  0
  2  3  1  0  0  0  0
  3  4  2  0  0  0  0
  4  9  1  0  0  0  0
  5  4  1  0  0  0  0
  5 17  1  0  0  0  0
  6  5  2  0  0  0  0
  7  8  1  0  0  0  0
  8  1  1  0  0  0  0
  9 10  2  0  0  0  0
 11  9  1  0  0  0  0
 11 16  1  0  0  0  0
 12 11  2  0  0  0  0
 13 12  1  0  0  0  0
 13 14  2  0  0  0  0
 14 15  1  0  0  0  0
 15 16  2  0  0  0  0
 18 17  1  0  0  0  0
M  END
>  <MODEL>
8

>  <REMARK>
 VINA RESULT:      -4.9      1.970      5.992
  Name = ox2_esm1_f8_ligand
  5 active torsions:
  status: ('A' for Active; 'I' for Inactive)
    1  A    between atoms: C_1  and  O_2
    2  A    between atoms: O_2  and  C_3
    3  A    between atoms: C_6  and  C_7
    4  A    between atoms: C_7  and  C_9
    5  A    between atoms: C_15  and  O_16
                            x       y       z     vdW  Elec       q    Type
                         _______ _______ _______ _____ _____    ______ ____

>  <TORSDO>
F 4

$$$$
ox2_esm1_f8_ligand
 OpenBabel10092621203D

 18 19  0  0  0  0  0  0  0  0999 V2000
   -0.4350    4.9870    5.7850 C   0  0  0  0  0  0  0  0  0  0  0  0
   -1.4230    5.0880    6.7610 C   0  0  0  0  0  3  0  0  0  0  0  0
   -2.2410    6.2020    6.8110 C   0  0  0  0  0  3  0  0  0  0  0  0
   -2.0740    7.2310    5.9020 C   0  0  0  0  0  0  0  0  0  0  0  0
   -1.0830    7.1360    4.9150 C   0  0  0  0  0  0  0  0  0  0  0  0
   -0.2720    6.0020    4.8690 C   0  0  0  0  0  3  0  0  0  0  0  0
    0.1020    2.7200    6.4620 C   0  0  0  0  0  1  0  0  0  0  0  0
    0.3930    3.9050    5.6880 O   0  0  0  0  0  0  0  0  0  0  0  0
   -2.9440    8.4470    5.9500 C   0  0  0  0  0  0  0  0  0  0  0  0
   -2.4730    9.5070    6.3060 O   0  0  0  0  0  0  0  0  0  0  0  0
   -4.3680    8.3870    5.5600 C   0  0  0  0  0  0  0  0  0  0  0  0
   -5.3510    8.7450    6.4770 C   0  0  0  0  0  3  0  0  0  0  0  0
   -6.6920    8.6960    6.1040 C   0  0  0  0  0  3  0  0  0  0  0  0
   -7.0660    8.2610    4.8410 C   0  0  0  0  0  3  0  0  0  0  0  0
   -6.0820    7.8660    3.9470 C   0  0  0  0  0  3  0  0  0  0  0  0
   -4.7350    7.9320    4.3030 C   0  0  0  0  0  3  0  0  0  0  0  0
   -0.9330    8.1550    4.0150 O   0  0  0  0  0  0  0  0  0  0  0  0
   -0.1830    8.7940    4.1120 H   0  0  0  0  0  0  0  0  0  0  0  0
  1  2  1  0  0  0  0
  2  3  2  0  0  0  0
  4  9  1  0  0  0  0
  4  3  1  0  0  0  0
  5  4  2  0  0  0  0
  6  5  1  0  0  0  0
  6  1  2  0  0  0  0
  8  1  1  0  0  0  0
  8  7  1  0  0  0  0
  9 10  2  0  0  0  0
 11  9  1  0  0  0  0
 11 12  1  0  0  0  0
 13 12  2  0  0  0  0
 14 13  1  0  0  0  0
 15 16  1  0  0  0  0
 15 14  2  0  0  0  0
 16 11  2  0  0  0  0
 17 18  1  0  0  0  0
 17  5  1  0  0  0  0
M  END
>  <MODEL>
9

>  <REMARK>
 VINA RESULT:      -4.9      2.115      6.450
  Name = ox2_esm1_f8_ligand
  5 active torsions:
  status: ('A' for Active; 'I' for Inactive)
    1  A    between atoms: C_1  and  O_2
    2  A    between atoms: O_2  and  C_3
    3  A    between atoms: C_6  and  C_7
    4  A    between atoms: C_7  and  C_9
    5  A    between atoms: C_15  and  O_16
                            x       y       z     vdW  Elec       q    Type
                         _______ _______ _______ _____ _____    ______ ____

>  <TORSDO>
F 4

$$$$
