ox3_orig_f8_ligand
     RDKit          3D

 29 30  0  0  0  0  0  0  0  0999 V2000
   -2.3182    8.3823   -6.2902 C   0  0  0  0  0  0  0  0  0  0  0  0
   -1.9112    8.1797   -4.9368 O   0  0  0  0  0  0  0  0  0  0  0  0
   -0.9460    7.2492   -4.6373 C   0  0  0  0  0  0  0  0  0  0  0  0
   -0.4010    6.4004   -5.6026 C   0  0  0  0  0  0  0  0  0  0  0  0
    0.5689    5.4772   -5.2457 C   0  0  0  0  0  0  0  0  0  0  0  0
    1.0039    5.3853   -3.9271 C   0  0  0  0  0  0  0  0  0  0  0  0
    2.0620    4.3959   -3.5277 C   0  0  0  0  0  0  0  0  0  0  0  0
    2.4778    4.4307   -2.3939 O   0  0  0  0  0  0  0  0  0  0  0  0
    2.6343    3.4116   -4.4792 C   0  0  0  0  0  0  0  0  0  0  0  0
    1.8222    2.6128   -5.2721 C   0  0  0  0  0  0  0  0  0  0  0  0
    2.3847    1.6795   -6.1232 C   0  0  0  0  0  0  0  0  0  0  0  0
    3.7556    1.5608   -6.2378 C   0  0  0  0  0  0  0  0  0  0  0  0
    4.5739    2.3422   -5.4398 C   0  0  0  0  0  0  0  0  0  0  0  0
    4.0188    3.2555   -4.5426 C   0  0  0  0  0  0  0  0  0  0  0  0
    0.4601    6.2451   -2.9733 C   0  0  0  0  0  0  0  0  0  0  0  0
    0.8976    6.1791   -1.6840 O   0  0  0  0  0  0  0  0  0  0  0  0
   -0.5099    7.1701   -3.3394 C   0  0  0  0  0  0  0  0  0  0  0  0
   -1.4331    8.5758   -6.9141 H   0  0  0  0  0  0  0  0  0  0  0  0
   -2.8353    7.4829   -6.6561 H   0  0  0  0  0  0  0  0  0  0  0  0
   -2.9997    9.2441   -6.3431 H   0  0  0  0  0  0  0  0  0  0  0  0
   -0.7417    6.4644   -6.6466 H   0  0  0  0  0  0  0  0  0  0  0  0
    0.9979    4.8123   -6.0100 H   0  0  0  0  0  0  0  0  0  0  0  0
    0.7287    2.7223   -5.2234 H   0  0  0  0  0  0  0  0  0  0  0  0
    1.7317    1.0230   -6.7167 H   0  0  0  0  0  0  0  0  0  0  0  0
    4.1934    0.8520   -6.9561 H   0  0  0  0  0  0  0  0  0  0  0  0
    5.6669    2.2426   -5.5135 H   0  0  0  0  0  0  0  0  0  0  0  0
    4.6715    3.8510   -3.8872 H   0  0  0  0  0  0  0  0  0  0  0  0
    0.5170    6.7856   -1.0004 H   0  0  0  0  0  0  0  0  0  0  0  0
   -0.9322    7.8456   -2.5809 H   0  0  0  0  0  0  0  0  0  0  0  0
  2  1  1  0
  3  2  1  0
  4  3  1  0
  5  4  2  0
  6  5  1  0
  7  6  1  0
  8  7  2  0
  9  7  1  0
 10  9  2  0
 11 10  1  0
 12 11  2  0
 13 12  1  0
 14 13  2  0
 14  9  1  0
 15  6  2  0
 16 15  1  0
 17 15  1  0
 17  3  2  0
  1 18  1  0
  1 19  1  0
  1 20  1  0
  4 21  1  0
  5 22  1  0
 10 23  1  0
 11 24  1  0
 12 25  1  0
 13 26  1  0
 14 27  1  0
 16 28  1  0
 17 29  1  0
M  END
$$$$
