ox3_orig_f8_ligand
 OpenBabel10092621223D

 18 19  0  0  0  0  0  0  0  0999 V2000
    5.5770    8.9160   -1.5320 C   0  0  0  0  0  0  0  0  0  0  0  0
    6.2130    8.9050   -0.2890 C   0  0  0  0  0  3  0  0  0  0  0  0
    5.4690    8.7430    0.8690 C   0  0  0  0  0  3  0  0  0  0  0  0
    4.0870    8.5850    0.8030 C   0  0  0  0  0  0  0  0  0  0  0  0
    3.4620    8.6080   -0.4440 C   0  0  0  0  0  0  0  0  0  0  0  0
    4.2140    8.7750   -1.6000 C   0  0  0  0  0  3  0  0  0  0  0  0
    5.5660    9.1320   -3.9510 C   0  0  0  0  0  1  0  0  0  0  0  0
    6.2680    9.0720   -2.7100 O   0  0  0  0  0  0  0  0  0  0  0  0
    3.2670    8.4180    2.0500 C   0  0  0  0  0  0  0  0  0  0  0  0
    2.6050    9.3560    2.4280 O   0  0  0  0  0  0  0  0  0  0  0  0
    3.2700    7.1670    2.8450 C   0  0  0  0  0  0  0  0  0  0  0  0
    2.5040    6.0700    2.4750 C   0  0  0  0  0  3  0  0  0  0  0  0
    2.5000    4.9290    3.2570 C   0  0  0  0  0  3  0  0  0  0  0  0
    3.2920    4.8410    4.3850 C   0  0  0  0  0  3  0  0  0  0  0  0
    4.0470    5.9350    4.7720 C   0  0  0  0  0  3  0  0  0  0  0  0
    4.0250    7.1090    4.0170 C   0  0  0  0  0  3  0  0  0  0  0  0
    2.1070    8.4800   -0.5160 O   0  0  0  0  0  0  0  0  0  0  0  0
    1.6520    7.7490   -0.0260 H   0  0  0  0  0  0  0  0  0  0  0  0
  1  2  1  0  0  0  0
  2  3  2  0  0  0  0
  4  3  1  0  0  0  0
  4  9  1  0  0  0  0
  5  4  2  0  0  0  0
  6  1  2  0  0  0  0
  6  5  1  0  0  0  0
  7  8  1  0  0  0  0
  8  1  1  0  0  0  0
  9 10  2  0  0  0  0
  9 11  1  0  0  0  0
 11 16  1  0  0  0  0
 12 11  2  0  0  0  0
 12 13  1  0  0  0  0
 13 14  2  0  0  0  0
 14 15  1  0  0  0  0
 16 15  2  0  0  0  0
 17  5  1  0  0  0  0
 17 18  1  0  0  0  0
M  END
>  <MODEL>
1

>  <REMARK>
 VINA RESULT:      -5.0      0.000      0.000
  Name = ox3_orig_f8_ligand
  5 active torsions:
  status: ('A' for Active; 'I' for Inactive)
    1  A    between atoms: C_1  and  O_2
    2  A    between atoms: O_2  and  C_3
    3  A    between atoms: C_6  and  C_7
    4  A    between atoms: C_7  and  C_9
    5  A    between atoms: C_15  and  O_16
                            x       y       z     vdW  Elec       q    Type
                         _______ _______ _______ _____ _____    ______ ____

>  <TORSDO>
F 4

$$$$
ox3_orig_f8_ligand
 OpenBabel10092621223D

 18 19  0  0  0  0  0  0  0  0999 V2000
    5.3000    9.3020   -1.8360 C   0  0  0  0  0  0  0  0  0  0  0  0
    6.1060    8.7940   -0.8150 C   0  0  0  0  0  3  0  0  0  0  0  0
    5.5280    8.1450    0.2650 C   0  0  0  0  0  3  0  0  0  0  0  0
    4.1470    7.9910    0.3390 C   0  0  0  0  0  0  0  0  0  0  0  0
    3.3510    8.5120   -0.6820 C   0  0  0  0  0  0  0  0  0  0  0  0
    3.9370    9.1640   -1.7600 C   0  0  0  0  0  3  0  0  0  0  0  0
    5.8090    9.3240   -4.2110 C   0  0  0  0  0  1  0  0  0  0  0  0
    5.8210    9.9520   -2.9290 O   0  0  0  0  0  0  0  0  0  0  0  0
    3.5070    7.2990    1.5090 C   0  0  0  0  0  0  0  0  0  0  0  0
    2.8950    6.2770    1.3030 O   0  0  0  0  0  0  0  0  0  0  0  0
    3.5680    7.8410    2.8880 C   0  0  0  0  0  0  0  0  0  0  0  0
    4.1590    7.1280    3.9220 C   0  0  0  0  0  3  0  0  0  0  0  0
    4.1680    7.6450    5.2050 C   0  0  0  0  0  3  0  0  0  0  0  0
    3.6400    8.8930    5.4700 C   0  0  0  0  0  3  0  0  0  0  0  0
    3.0340    9.6040    4.4490 C   0  0  0  0  0  3  0  0  0  0  0  0
    2.9760    9.0750    3.1590 C   0  0  0  0  0  3  0  0  0  0  0  0
    1.9960    8.3880   -0.6050 O   0  0  0  0  0  0  0  0  0  0  0  0
    1.5560    8.3010    0.2780 H   0  0  0  0  0  0  0  0  0  0  0  0
  1  6  2  0  0  0  0
  1  2  1  0  0  0  0
  2  3  2  0  0  0  0
  3  4  1  0  0  0  0
  4  9  1  0  0  0  0
  5 17  1  0  0  0  0
  5  4  2  0  0  0  0
  6  5  1  0  0  0  0
  7  8  1  0  0  0  0
  8  1  1  0  0  0  0
  9 11  1  0  0  0  0
 10  9  2  0  0  0  0
 11 16  2  0  0  0  0
 11 12  1  0  0  0  0
 12 13  2  0  0  0  0
 13 14  1  0  0  0  0
 15 14  2  0  0  0  0
 16 15  1  0  0  0  0
 17 18  1  0  0  0  0
M  END
>  <MODEL>
2

>  <REMARK>
 VINA RESULT:      -4.8      1.445      2.092
  Name = ox3_orig_f8_ligand
  5 active torsions:
  status: ('A' for Active; 'I' for Inactive)
    1  A    between atoms: C_1  and  O_2
    2  A    between atoms: O_2  and  C_3
    3  A    between atoms: C_6  and  C_7
    4  A    between atoms: C_7  and  C_9
    5  A    between atoms: C_15  and  O_16
                            x       y       z     vdW  Elec       q    Type
                         _______ _______ _______ _____ _____    ______ ____

>  <TORSDO>
F 4

$$$$
ox3_orig_f8_ligand
 OpenBabel10092621223D

 18 19  0  0  0  0  0  0  0  0999 V2000
    5.8490    9.1620   -4.7400 C   0  0  0  0  0  0  0  0  0  0  0  0
    6.9570    8.6220   -5.3990 C   0  0  0  0  0  3  0  0  0  0  0  0
    6.8340    7.4330   -6.0990 C   0  0  0  0  0  3  0  0  0  0  0  0
    5.6110    6.7700   -6.1550 C   0  0  0  0  0  0  0  0  0  0  0  0
    4.5150    7.3130   -5.4850 C   0  0  0  0  0  0  0  0  0  0  0  0
    4.6460    8.5050   -4.7830 C   0  0  0  0  0  3  0  0  0  0  0  0
    6.0690   10.3170   -2.6150 C   0  0  0  0  0  1  0  0  0  0  0  0
    5.9160   10.3390   -4.0340 O   0  0  0  0  0  0  0  0  0  0  0  0
    5.4670    5.4750   -6.9020 C   0  0  0  0  0  0  0  0  0  0  0  0
    4.8470    5.4790   -7.9390 O   0  0  0  0  0  0  0  0  0  0  0  0
    6.0220    4.1960   -6.3960 C   0  0  0  0  0  0  0  0  0  0  0  0
    7.3760    3.9050   -6.4890 C   0  0  0  0  0  3  0  0  0  0  0  0
    7.8580    2.6890   -6.0410 C   0  0  0  0  0  3  0  0  0  0  0  0
    7.0160    1.7680   -5.4490 C   0  0  0  0  0  3  0  0  0  0  0  0
    5.6620    2.0410   -5.3660 C   0  0  0  0  0  3  0  0  0  0  0  0
    5.1540    3.2450   -5.8570 C   0  0  0  0  0  3  0  0  0  0  0  0
    3.3200    6.6580   -5.5140 O   0  0  0  0  0  0  0  0  0  0  0  0
    3.1320    5.9430   -4.8560 H   0  0  0  0  0  0  0  0  0  0  0  0
  1  8  1  0  0  0  0
  2  1  2  0  0  0  0
  3  2  1  0  0  0  0
  4  3  2  0  0  0  0
  4  5  1  0  0  0  0
  5  6  2  0  0  0  0
  6  1  1  0  0  0  0
  8  7  1  0  0  0  0
  9 11  1  0  0  0  0
  9  4  1  0  0  0  0
 10  9  2  0  0  0  0
 11 16  1  0  0  0  0
 12 11  2  0  0  0  0
 12 13  1  0  0  0  0
 13 14  2  0  0  0  0
 14 15  1  0  0  0  0
 16 15  2  0  0  0  0
 17  5  1  0  0  0  0
 17 18  1  0  0  0  0
M  END
>  <MODEL>
3

>  <REMARK>
 VINA RESULT:      -4.8      5.892      8.134
  Name = ox3_orig_f8_ligand
  5 active torsions:
  status: ('A' for Active; 'I' for Inactive)
    1  A    between atoms: C_1  and  O_2
    2  A    between atoms: O_2  and  C_3
    3  A    between atoms: C_6  and  C_7
    4  A    between atoms: C_7  and  C_9
    5  A    between atoms: C_15  and  O_16
                            x       y       z     vdW  Elec       q    Type
                         _______ _______ _______ _____ _____    ______ ____

>  <TORSDO>
F 4

$$$$
ox3_orig_f8_ligand
 OpenBabel10092621223D

 18 19  0  0  0  0  0  0  0  0999 V2000
    3.3680    3.8460    5.0910 C   0  0  0  0  0  0  0  0  0  0  0  0
    4.2970    4.8240    5.4550 C   0  0  0  0  0  3  0  0  0  0  0  0
    4.2760    6.0640    4.8350 C   0  0  0  0  0  3  0  0  0  0  0  0
    3.3320    6.3450    3.8520 C   0  0  0  0  0  0  0  0  0  0  0  0
    2.4160    5.3580    3.4900 C   0  0  0  0  0  0  0  0  0  0  0  0
    2.4450    4.1160    4.1130 C   0  0  0  0  0  3  0  0  0  0  0  0
    2.2350    1.7300    5.4600 C   0  0  0  0  0  1  0  0  0  0  0  0
    3.3440    2.6020    5.6740 O   0  0  0  0  0  0  0  0  0  0  0  0
    3.3040    7.6810    3.1660 C   0  0  0  0  0  0  0  0  0  0  0  0
    2.4360    8.4630    3.4720 O   0  0  0  0  0  0  0  0  0  0  0  0
    4.2750    8.0550    2.1080 C   0  0  0  0  0  0  0  0  0  0  0  0
    5.4760    8.6800    2.4150 C   0  0  0  0  0  3  0  0  0  0  0  0
    6.3440    9.0490    1.4030 C   0  0  0  0  0  3  0  0  0  0  0  0
    6.0600    8.7580    0.0840 C   0  0  0  0  0  3  0  0  0  0  0  0
    4.8570    8.1500   -0.2330 C   0  0  0  0  0  3  0  0  0  0  0  0
    3.9510    7.8140    0.7730 C   0  0  0  0  0  3  0  0  0  0  0  0
    1.5040    5.6160    2.5110 O   0  0  0  0  0  0  0  0  0  0  0  0
    0.5370    5.5080    2.6940 H   0  0  0  0  0  0  0  0  0  0  0  0
  1  2  1  0  0  0  0
  1  8  1  0  0  0  0
  3  2  2  0  0  0  0
  4  3  1  0  0  0  0
  5  4  2  0  0  0  0
  5  6  1  0  0  0  0
  6  1  2  0  0  0  0
  7  8  1  0  0  0  0
  9 10  2  0  0  0  0
  9  4  1  0  0  0  0
 11 12  1  0  0  0  0
 11  9  1  0  0  0  0
 13 12  2  0  0  0  0
 14 13  1  0  0  0  0
 15 14  2  0  0  0  0
 15 16  1  0  0  0  0
 16 11  2  0  0  0  0
 17 18  1  0  0  0  0
 17  5  1  0  0  0  0
M  END
>  <MODEL>
4

>  <REMARK>
 VINA RESULT:      -4.7      2.446      6.345
  Name = ox3_orig_f8_ligand
  5 active torsions:
  status: ('A' for Active; 'I' for Inactive)
    1  A    between atoms: C_1  and  O_2
    2  A    between atoms: O_2  and  C_3
    3  A    between atoms: C_6  and  C_7
    4  A    between atoms: C_7  and  C_9
    5  A    between atoms: C_15  and  O_16
                            x       y       z     vdW  Elec       q    Type
                         _______ _______ _______ _____ _____    ______ ____

>  <TORSDO>
F 4

$$$$
ox3_orig_f8_ligand
 OpenBabel10092621223D

 18 19  0  0  0  0  0  0  0  0999 V2000
    3.1050    4.6090    4.3740 C   0  0  0  0  0  0  0  0  0  0  0  0
    2.3910    4.8290    3.1940 C   0  0  0  0  0  3  0  0  0  0  0  0
    2.4870    6.0490    2.5450 C   0  0  0  0  0  3  0  0  0  0  0  0
    3.2950    7.0600    3.0570 C   0  0  0  0  0  0  0  0  0  0  0  0
    3.9950    6.8320    4.2420 C   0  0  0  0  0  0  0  0  0  0  0  0
    3.8920    5.6070    4.8890 C   0  0  0  0  0  3  0  0  0  0  0  0
    1.8230    2.6870    5.1240 C   0  0  0  0  0  1  0  0  0  0  0  0
    3.0470    3.4170    5.0570 O   0  0  0  0  0  0  0  0  0  0  0  0
    3.4010    8.3910    2.3690 C   0  0  0  0  0  0  0  0  0  0  0  0
    2.9770    9.3660    2.9430 O   0  0  0  0  0  0  0  0  0  0  0  0
    3.9680    8.5420    1.0070 C   0  0  0  0  0  0  0  0  0  0  0  0
    5.3310    8.4250    0.7720 C   0  0  0  0  0  3  0  0  0  0  0  0
    5.8340    8.6070   -0.5040 C   0  0  0  0  0  3  0  0  0  0  0  0
    4.9910    8.8560   -1.5690 C   0  0  0  0  0  3  0  0  0  0  0  0
    3.6320    8.9900   -1.3420 C   0  0  0  0  0  3  0  0  0  0  0  0
    3.1160    8.8550   -0.0530 C   0  0  0  0  0  3  0  0  0  0  0  0
    4.7690    7.8250    4.7650 O   0  0  0  0  0  0  0  0  0  0  0  0
    4.4480    8.7620    4.7530 H   0  0  0  0  0  0  0  0  0  0  0  0
  1  6  1  0  0  0  0
  1  8  1  0  0  0  0
  2  1  2  0  0  0  0
  3  4  2  0  0  0  0
  3  2  1  0  0  0  0
  4  5  1  0  0  0  0
  5 17  1  0  0  0  0
  5  6  2  0  0  0  0
  8  7  1  0  0  0  0
  9 10  2  0  0  0  0
  9  4  1  0  0  0  0
 11  9  1  0  0  0  0
 12 11  1  0  0  0  0
 13 12  2  0  0  0  0
 14 15  2  0  0  0  0
 14 13  1  0  0  0  0
 15 16  1  0  0  0  0
 16 11  2  0  0  0  0
 18 17  1  0  0  0  0
M  END
>  <MODEL>
5

>  <REMARK>
 VINA RESULT:      -4.5      1.956      6.263
  Name = ox3_orig_f8_ligand
  5 active torsions:
  status: ('A' for Active; 'I' for Inactive)
    1  A    between atoms: C_1  and  O_2
    2  A    between atoms: O_2  and  C_3
    3  A    between atoms: C_6  and  C_7
    4  A    between atoms: C_7  and  C_9
    5  A    between atoms: C_15  and  O_16
                            x       y       z     vdW  Elec       q    Type
                         _______ _______ _______ _____ _____    ______ ____

>  <TORSDO>
F 4

$$$$
ox3_orig_f8_ligand
 OpenBabel10092621223D

 18 19  0  0  0  0  0  0  0  0999 V2000
    7.1310    1.8320   -5.5080 C   0  0  0  0  0  0  0  0  0  0  0  0
    8.0270    2.7270   -6.0970 C   0  0  0  0  0  3  0  0  0  0  0  0
    7.5810    3.9620   -6.5410 C   0  0  0  0  0  3  0  0  0  0  0  0
    6.2430    4.3210   -6.4020 C   0  0  0  0  0  0  0  0  0  0  0  0
    5.3560    3.4140   -5.8230 C   0  0  0  0  0  0  0  0  0  0  0  0
    5.8090    2.1770   -5.3820 C   0  0  0  0  0  3  0  0  0  0  0  0
    6.9320   -0.5880   -5.5860 C   0  0  0  0  0  1  0  0  0  0  0  0
    7.5210    0.5970   -5.0490 O   0  0  0  0  0  0  0  0  0  0  0  0
    5.7450    5.6510   -6.8890 C   0  0  0  0  0  0  0  0  0  0  0  0
    5.2760    5.7140   -8.0010 O   0  0  0  0  0  0  0  0  0  0  0  0
    5.8400    6.8860   -6.0730 C   0  0  0  0  0  0  0  0  0  0  0  0
    7.0490    7.5440   -5.8900 C   0  0  0  0  0  3  0  0  0  0  0  0
    7.1120    8.6730   -5.0940 C   0  0  0  0  0  3  0  0  0  0  0  0
    5.9730    9.1940   -4.5120 C   0  0  0  0  0  3  0  0  0  0  0  0
    4.7660    8.5370   -4.6750 C   0  0  0  0  0  3  0  0  0  0  0  0
    4.6950    7.3700   -5.4380 C   0  0  0  0  0  3  0  0  0  0  0  0
    4.0390    3.7470   -5.7050 O   0  0  0  0  0  0  0  0  0  0  0  0
    3.7800    4.5890   -5.2510 H   0  0  0  0  0  0  0  0  0  0  0  0
  1  6  1  0  0  0  0
  1  8  1  0  0  0  0
  2  1  2  0  0  0  0
  3  4  2  0  0  0  0
  3  2  1  0  0  0  0
  4  5  1  0  0  0  0
  5 17  1  0  0  0  0
  5  6  2  0  0  0  0
  7  8  1  0  0  0  0
  9  4  1  0  0  0  0
  9 11  1  0  0  0  0
 10  9  2  0  0  0  0
 11 12  2  0  0  0  0
 11 16  1  0  0  0  0
 12 13  1  0  0  0  0
 13 14  2  0  0  0  0
 15 14  1  0  0  0  0
 16 15  2  0  0  0  0
 17 18  1  0  0  0  0
M  END
>  <MODEL>
6

>  <REMARK>
 VINA RESULT:      -4.3      7.005      9.236
  Name = ox3_orig_f8_ligand
  5 active torsions:
  status: ('A' for Active; 'I' for Inactive)
    1  A    between atoms: C_1  and  O_2
    2  A    between atoms: O_2  and  C_3
    3  A    between atoms: C_6  and  C_7
    4  A    between atoms: C_7  and  C_9
    5  A    between atoms: C_15  and  O_16
                            x       y       z     vdW  Elec       q    Type
                         _______ _______ _______ _____ _____    ______ ____

>  <TORSDO>
F 4

$$$$
ox3_orig_f8_ligand
 OpenBabel10092621223D

 18 19  0  0  0  0  0  0  0  0999 V2000
    5.5900    3.4990   -6.3240 C   0  0  0  0  0  0  0  0  0  0  0  0
    6.7570    4.2270   -6.5690 C   0  0  0  0  0  3  0  0  0  0  0  0
    6.7410    5.6100   -6.4850 C   0  0  0  0  0  3  0  0  0  0  0  0
    5.5680    6.2830   -6.1540 C   0  0  0  0  0  0  0  0  0  0  0  0
    4.4070    5.5460   -5.9220 C   0  0  0  0  0  0  0  0  0  0  0  0
    4.4300    4.1590   -6.0110 C   0  0  0  0  0  3  0  0  0  0  0  0
    5.8910    1.3420   -5.2500 C   0  0  0  0  0  1  0  0  0  0  0  0
    5.5520    2.1270   -6.3920 O   0  0  0  0  0  0  0  0  0  0  0  0
    5.5340    7.7820   -6.0690 C   0  0  0  0  0  0  0  0  0  0  0  0
    5.1540    8.4000   -7.0360 O   0  0  0  0  0  0  0  0  0  0  0  0
    5.9800    8.5240   -4.8650 C   0  0  0  0  0  0  0  0  0  0  0  0
    7.3070    8.8890   -4.6880 C   0  0  0  0  0  3  0  0  0  0  0  0
    7.6990    9.5490   -3.5370 C   0  0  0  0  0  3  0  0  0  0  0  0
    6.7750    9.9010   -2.5730 C   0  0  0  0  0  3  0  0  0  0  0  0
    5.4520    9.5270   -2.7320 C   0  0  0  0  0  3  0  0  0  0  0  0
    5.0510    8.8200   -3.8670 C   0  0  0  0  0  3  0  0  0  0  0  0
    3.2480    6.1980   -5.6210 O   0  0  0  0  0  0  0  0  0  0  0  0
    2.7920    6.0250   -4.7590 H   0  0  0  0  0  0  0  0  0  0  0  0
  1  6  1  0  0  0  0
  2  3  1  0  0  0  0
  2  1  2  0  0  0  0
  3  4  2  0  0  0  0
  4  9  1  0  0  0  0
  4  5  1  0  0  0  0
  5 17  1  0  0  0  0
  6  5  2  0  0  0  0
  8  1  1  0  0  0  0
  8  7  1  0  0  0  0
  9 11  1  0  0  0  0
 10  9  2  0  0  0  0
 11 12  2  0  0  0  0
 11 16  1  0  0  0  0
 12 13  1  0  0  0  0
 13 14  2  0  0  0  0
 15 14  1  0  0  0  0
 16 15  2  0  0  0  0
 17 18  1  0  0  0  0
M  END
>  <MODEL>
7

>  <REMARK>
 VINA RESULT:      -4.3      5.764      8.085
  Name = ox3_orig_f8_ligand
  5 active torsions:
  status: ('A' for Active; 'I' for Inactive)
    1  A    between atoms: C_1  and  O_2
    2  A    between atoms: O_2  and  C_3
    3  A    between atoms: C_6  and  C_7
    4  A    between atoms: C_7  and  C_9
    5  A    between atoms: C_15  and  O_16
                            x       y       z     vdW  Elec       q    Type
                         _______ _______ _______ _____ _____    ______ ____

>  <TORSDO>
F 4

$$$$
ox3_orig_f8_ligand
 OpenBabel10092621223D

 18 19  0  0  0  0  0  0  0  0999 V2000
    3.6270    8.1290    4.3120 C   0  0  0  0  0  0  0  0  0  0  0  0
    3.9780    9.3560    3.7430 C   0  0  0  0  0  3  0  0  0  0  0  0
    3.9330    9.5190    2.3670 C   0  0  0  0  0  3  0  0  0  0  0  0
    3.5360    8.4690    1.5450 C   0  0  0  0  0  0  0  0  0  0  0  0
    3.1990    7.2460    2.1230 C   0  0  0  0  0  0  0  0  0  0  0  0
    3.2490    7.0880    3.5030 C   0  0  0  0  0  3  0  0  0  0  0  0
    2.4800    7.4640    6.3460 C   0  0  0  0  0  1  0  0  0  0  0  0
    3.6530    7.9140    5.6690 O   0  0  0  0  0  0  0  0  0  0  0  0
    3.4930    8.6300    0.0510 C   0  0  0  0  0  0  0  0  0  0  0  0
    2.4190    8.5640   -0.4990 O   0  0  0  0  0  0  0  0  0  0  0  0
    4.7150    8.8270   -0.7660 C   0  0  0  0  0  0  0  0  0  0  0  0
    4.6450    9.2670   -2.0800 C   0  0  0  0  0  3  0  0  0  0  0  0
    5.8000    9.4070   -2.8280 C   0  0  0  0  0  3  0  0  0  0  0  0
    7.0390    9.1640   -2.2700 C   0  0  0  0  0  3  0  0  0  0  0  0
    7.1180    8.7090   -0.9650 C   0  0  0  0  0  3  0  0  0  0  0  0
    5.9580    8.5190   -0.2130 C   0  0  0  0  0  3  0  0  0  0  0  0
    2.8330    6.2040    1.3230 O   0  0  0  0  0  0  0  0  0  0  0  0
    2.3200    5.4460    1.7020 H   0  0  0  0  0  0  0  0  0  0  0  0
  1  8  1  0  0  0  0
  2  1  1  0  0  0  0
  3  2  2  0  0  0  0
  4  5  2  0  0  0  0
  4  3  1  0  0  0  0
  5  6  1  0  0  0  0
  6  1  2  0  0  0  0
  8  7  1  0  0  0  0
  9  4  1  0  0  0  0
 10  9  2  0  0  0  0
 11 16  1  0  0  0  0
 11  9  1  0  0  0  0
 12 11  2  0  0  0  0
 13 14  2  0  0  0  0
 13 12  1  0  0  0  0
 14 15  1  0  0  0  0
 15 16  2  0  0  0  0
 17 18  1  0  0  0  0
 17  5  1  0  0  0  0
M  END
>  <MODEL>
8

>  <REMARK>
 VINA RESULT:      -4.3      1.778      5.919
  Name = ox3_orig_f8_ligand
  5 active torsions:
  status: ('A' for Active; 'I' for Inactive)
    1  A    between atoms: C_1  and  O_2
    2  A    between atoms: O_2  and  C_3
    3  A    between atoms: C_6  and  C_7
    4  A    between atoms: C_7  and  C_9
    5  A    between atoms: C_15  and  O_16
                            x       y       z     vdW  Elec       q    Type
                         _______ _______ _______ _____ _____    ______ ____

>  <TORSDO>
F 4

$$$$
ox3_orig_f8_ligand
 OpenBabel10092621223D

 18 19  0  0  0  0  0  0  0  0999 V2000
    3.5780   -3.4980   -8.1580 C   0  0  0  0  0  0  0  0  0  0  0  0
    4.3800   -2.6180   -8.8880 C   0  0  0  0  0  3  0  0  0  0  0  0
    4.2550   -1.2500   -8.7020 C   0  0  0  0  0  3  0  0  0  0  0  0
    3.3370   -0.7440   -7.7870 C   0  0  0  0  0  0  0  0  0  0  0  0
    2.5330   -1.6320   -7.0720 C   0  0  0  0  0  0  0  0  0  0  0  0
    2.6620   -3.0010   -7.2660 C   0  0  0  0  0  3  0  0  0  0  0  0
    3.1380   -5.7250   -7.2950 C   0  0  0  0  0  1  0  0  0  0  0  0
    3.6620   -4.8620   -8.3030 O   0  0  0  0  0  0  0  0  0  0  0  0
    3.1840    0.7370   -7.5830 C   0  0  0  0  0  0  0  0  0  0  0  0
    2.1810    1.2700   -7.9950 O   0  0  0  0  0  0  0  0  0  0  0  0
    4.2280    1.5640   -6.9320 C   0  0  0  0  0  0  0  0  0  0  0  0
    5.1980    0.9980   -6.1160 C   0  0  0  0  0  3  0  0  0  0  0  0
    6.1370    1.8010   -5.4940 C   0  0  0  0  0  3  0  0  0  0  0  0
    6.1590    3.1650   -5.7120 C   0  0  0  0  0  3  0  0  0  0  0  0
    5.1860    3.7410   -6.5100 C   0  0  0  0  0  3  0  0  0  0  0  0
    4.2050    2.9480   -7.1080 C   0  0  0  0  0  3  0  0  0  0  0  0
    1.6140   -1.1440   -6.1920 O   0  0  0  0  0  0  0  0  0  0  0  0
    1.0310   -0.3860   -6.4540 H   0  0  0  0  0  0  0  0  0  0  0  0
  1  6  1  0  0  0  0
  2  3  1  0  0  0  0
  2  1  2  0  0  0  0
  3  4  2  0  0  0  0
  4  9  1  0  0  0  0
  4  5  1  0  0  0  0
  5 17  1  0  0  0  0
  6  5  2  0  0  0  0
  8  1  1  0  0  0  0
  8  7  1  0  0  0  0
  9 11  1  0  0  0  0
 10  9  2  0  0  0  0
 11 12  1  0  0  0  0
 12 13  2  0  0  0  0
 14 13  1  0  0  0  0
 15 14  2  0  0  0  0
 16 11  2  0  0  0  0
 16 15  1  0  0  0  0
 18 17  1  0  0  0  0
M  END
>  <MODEL>
9

>  <REMARK>
 VINA RESULT:      -4.2     10.829     12.677
  Name = ox3_orig_f8_ligand
  5 active torsions:
  status: ('A' for Active; 'I' for Inactive)
    1  A    between atoms: C_1  and  O_2
    2  A    between atoms: O_2  and  C_3
    3  A    between atoms: C_6  and  C_7
    4  A    between atoms: C_7  and  C_9
    5  A    between atoms: C_15  and  O_16
                            x       y       z     vdW  Elec       q    Type
                         _______ _______ _______ _____ _____    ______ ____

>  <TORSDO>
F 4

$$$$
