bg33_1_ligand
     RDKit          3D

 44 44  0  0  0  0  0  0  0  0999 V2000
    4.3320  -10.7190   18.4360 C   0  0  0  0  0  0  0  0  0  0  0  0
    5.6390   -9.9720   18.2920 C   0  0  0  0  0  0  0  0  0  0  0  0
    5.5900   -9.1030   17.1330 C   0  0  0  0  0  0  0  0  0  0  0  0
    6.0010   -9.9630   16.0820 C   0  0  0  0  0  0  0  0  0  0  0  0
    5.6380   -9.5090   14.8050 C   0  0  2  0  0  0  0  0  0  0  0  0
    6.6990   -8.9210   13.9380 C   0  0  0  0  0  0  0  0  0  0  0  0
    7.0130   -7.5820   14.2590 C   0  0  0  0  0  0  0  0  0  0  0  0
    4.5590   -8.8590   14.7450 O   0  0  0  0  0  0  0  0  0  0  0  0
    4.0130   -8.9200   13.5780 C   0  0  0  0  0  0  0  0  0  0  0  0
    4.4900   -9.6220   12.7270 O   0  0  0  0  0  0  0  0  0  0  0  0
    2.8550   -8.1590   13.3260 C   0  0  0  0  0  0  0  0  0  0  0  0
    2.7230   -7.6500   12.1840 C   0  0  0  0  0  0  0  0  0  0  0  0
    1.7290   -6.7610   11.8370 C   0  0  0  0  0  0  0  0  0  0  0  0
    0.4320   -7.0720   11.9720 C   0  0  0  0  0  0  0  0  0  0  0  0
   -0.5590   -6.2100   11.6340 C   0  0  0  0  0  0  0  0  0  0  0  0
   -0.1840   -4.9800   11.1790 C   0  0  0  0  0  0  0  0  0  0  0  0
   -1.0890   -4.0990   10.8240 O   0  0  0  0  0  0  0  0  0  0  0  0
   -1.0020   -2.8980   11.5110 C   0  0  0  0  0  0  0  0  0  0  0  0
    1.0750   -4.6200   11.0390 C   0  0  0  0  0  0  0  0  0  0  0  0
    2.0360   -5.5220   11.3440 C   0  0  0  0  0  0  0  0  0  0  0  0
    4.1008  -10.8511   19.5033 H   0  0  0  0  0  0  0  0  0  0  0  0
    3.5266  -10.1448   17.9547 H   0  0  0  0  0  0  0  0  0  0  0  0
    4.4179  -11.7044   17.9547 H   0  0  0  0  0  0  0  0  0  0  0  0
    5.8135   -9.3666   19.1937 H   0  0  0  0  0  0  0  0  0  0  0  0
    6.4563  -10.6970   18.1645 H   0  0  0  0  0  0  0  0  0  0  0  0
    4.5707   -8.7266   16.9621 H   0  0  0  0  0  0  0  0  0  0  0  0
    6.2173   -8.2050   17.2334 H   0  0  0  0  0  0  0  0  0  0  0  0
    7.0964  -10.0566   16.1186 H   0  0  0  0  0  0  0  0  0  0  0  0
    5.4912  -10.9253   16.2371 H   0  0  0  0  0  0  0  0  0  0  0  0
    5.4469  -10.4858   14.3366 H   0  0  0  0  0  0  0  0  0  0  0  0
    7.6107   -9.5272   14.0443 H   0  0  0  0  0  0  0  0  0  0  0  0
    6.3127   -8.9240   12.9081 H   0  0  0  0  0  0  0  0  0  0  0  0
    7.0407   -7.4639   15.3523 H   0  0  0  0  0  0  0  0  0  0  0  0
    7.9959   -7.3247   13.8374 H   0  0  0  0  0  0  0  0  0  0  0  0
    6.2470   -6.9146   13.8374 H   0  0  0  0  0  0  0  0  0  0  0  0
    2.0904   -8.0146   14.1036 H   0  0  0  0  0  0  0  0  0  0  0  0
    3.4505   -7.9336   11.4092 H   0  0  0  0  0  0  0  0  0  0  0  0
    0.1621   -8.0610   12.3709 H   0  0  0  0  0  0  0  0  0  0  0  0
   -1.6189   -6.4905   11.7229 H   0  0  0  0  0  0  0  0  0  0  0  0
   -1.0161   -3.0929   12.5935 H   0  0  0  0  0  0  0  0  0  0  0  0
   -0.0646   -2.3889   11.2423 H   0  0  0  0  0  0  0  0  0  0  0  0
   -1.8562   -2.2592   11.2423 H   0  0  0  0  0  0  0  0  0  0  0  0
    1.3382   -3.6128   10.6836 H   0  0  0  0  0  0  0  0  0  0  0  0
    3.0915   -5.2524   11.1917 H   0  0  0  0  0  0  0  0  0  0  0  0
  2  1  1  0
  3  2  1  0
  4  3  1  0
  5  4  1  0
  6  5  1  0
  7  6  1  0
  8  5  1  0
  9  8  1  0
 10  9  2  0
 11  9  1  0
 12 11  2  3
 13 12  1  0
 14 13  1  0
 15 14  2  0
 16 15  1  0
 17 16  1  0
 18 17  1  0
 19 16  2  0
 20 13  2  0
 20 19  1  0
  1 21  1  0
  1 22  1  0
  1 23  1  0
  2 24  1  0
  2 25  1  0
  3 26  1  0
  3 27  1  0
  4 28  1  0
  4 29  1  0
  5 30  1  6
  6 31  1  0
  6 32  1  0
  7 33  1  0
  7 34  1  0
  7 35  1  0
 11 36  1  0
 12 37  1  0
 14 38  1  0
 15 39  1  0
 18 40  1  0
 18 41  1  0
 18 42  1  0
 19 43  1  0
 20 44  1  0
M  END
$$$$
