bg33_1_ligand
 OpenBabel10042615103D

 20 20  0  0  1  0  0  0  0  0999 V2000
    4.5800   -3.7500    8.9590 C   0  0  0  0  0  0  0  0  0  0  0  0
    5.4130   -3.0290    9.4380 O   0  0  0  0  0  0  0  0  0  0  0  0
    4.1860   -4.9360    9.6090 C   0  0  0  0  0  3  0  0  0  0  0  0
    3.4660   -4.8320   10.6350 C   0  0  0  0  0  3  0  0  0  0  0  0
    3.1300   -5.8820   11.4610 C   0  0  0  0  0  0  0  0  0  0  0  0
    1.8800   -6.3640   11.5080 C   0  0  0  0  0  3  0  0  0  0  0  0
    1.5310   -7.3960   12.3160 C   0  0  0  0  0  3  0  0  0  0  0  0
    2.5210   -7.9610   13.0650 C   0  0  0  0  0  0  0  0  0  0  0  0
    3.7670   -7.5330   13.0470 C   0  0  0  0  0  3  0  0  0  0  0  0
    4.0680   -6.4730   12.2630 C   0  0  0  0  0  3  0  0  0  0  0  0
    2.2540   -8.9560   13.8770 O   0  0  0  0  0  0  0  0  0  0  0  0
    2.8670   -8.8490   15.1160 C   0  0  0  0  0  1  0  0  0  0  0  0
    4.0300   -3.4420    7.8340 O   0  0  0  0  0  0  0  0  0  0  0  0
    3.6980   -2.2270    7.7790 C   0  0  1  0  0  3  0  0  0  0  0  0
    4.2310   -1.5520    6.5610 C   0  0  0  0  0  2  0  0  0  0  0  0
    5.2530   -0.6170    6.8350 C   0  0  0  0  0  1  0  0  0  0  0  0
    2.3820   -1.9400    8.1740 C   0  0  0  0  0  2  0  0  0  0  0  0
    2.2730   -0.8030    9.0160 C   0  0  0  0  0  2  0  0  0  0  0  0
    0.8300   -2.2940   10.2760 C   0  0  0  0  0  1  0  0  0  0  0  0
    2.0450   -1.3940   10.3190 C   0  0  0  0  0  2  0  0  0  0  0  0
  1  2  2  0  0  0  0
  1  3  1  0  0  0  0
  3  4  2  0  0  0  0
  4  5  1  0  0  0  0
  5  6  2  0  0  0  0
  5 10  1  0  0  0  0
  6  7  1  0  0  0  0
  7  8  2  0  0  0  0
  8 11  1  0  0  0  0
  9  8  1  0  0  0  0
 10  9  2  0  0  0  0
 11 12  1  0  0  0  0
 13  1  1  0  0  0  0
 14 15  1  6  0  0  0
 14 13  1  0  0  0  0
 14 17  1  0  0  0  0
 15 16  1  0  0  0  0
 17 18  1  0  0  0  0
 18 20  1  0  0  0  0
 19 20  1  0  0  0  0
M  END
>  <MODEL>
1

>  <REMARK>
 VINA RESULT:      -3.2      0.000      0.000
  Name = bg33_1_ligand
  12 active torsions:
  status: ('A' for Active; 'I' for Inactive)
    1  A    between atoms: C_1  and  C_2
    2  A    between atoms: C_2  and  C_3
    3  A    between atoms: C_3  and  C_4
    4  A    between atoms: C_4  and  C_5
    5  A    between atoms: C_5  and  C_6
    6  A    between atoms: C_5  and  O_8
    7  A    between atoms: C_6  and  C_7
    8  A    between atoms: O_8  and  C_9
    9  A    between atoms: C_9  and  C_11
   10  A    between atoms: C_12  and  C_13
   11  A    between atoms: C_16  and  O_17
   12  A    between atoms: O_17  and  C_18
                            x       y       z     vdW  Elec       q    Type
                         _______ _______ _______ _____ _____    ______ ____

>  <TORSDO>
F 9

$$$$
bg33_1_ligand
 OpenBabel10042615103D

 20 20  0  0  1  0  0  0  0  0999 V2000
   -2.7200   -3.3650    7.6310 C   0  0  0  0  0  0  0  0  0  0  0  0
   -3.5390   -2.5830    8.0320 O   0  0  0  0  0  0  0  0  0  0  0  0
   -2.8240   -4.7390    7.9220 C   0  0  0  0  0  3  0  0  0  0  0  0
   -2.9660   -5.5350    6.9600 C   0  0  0  0  0  3  0  0  0  0  0  0
   -3.2330   -6.8800    7.0940 C   0  0  0  0  0  0  0  0  0  0  0  0
   -4.0830   -7.5120    6.2720 C   0  0  0  0  0  3  0  0  0  0  0  0
   -4.3590   -8.8340    6.3910 C   0  0  0  0  0  3  0  0  0  0  0  0
   -3.7020   -9.5200    7.3700 C   0  0  0  0  0  0  0  0  0  0  0  0
   -2.8490   -8.9510    8.1960 C   0  0  0  0  0  3  0  0  0  0  0  0
   -2.6320   -7.6210    8.0760 C   0  0  0  0  0  3  0  0  0  0  0  0
   -3.9260  -10.8000    7.5490 O   0  0  0  0  0  0  0  0  0  0  0  0
   -2.7880  -11.5330    7.8460 C   0  0  0  0  0  1  0  0  0  0  0  0
   -1.7290   -2.9510    6.9160 O   0  0  0  0  0  0  0  0  0  0  0  0
   -1.3690   -1.7820    7.2250 C   0  0  1  0  0  3  0  0  0  0  0  0
   -0.3030   -1.7780    8.2670 C   0  0  0  0  0  2  0  0  0  0  0  0
    0.9430   -1.3040    7.7980 C   0  0  0  0  0  1  0  0  0  0  0  0
   -1.2550   -0.8820    6.1550 C   0  0  0  0  0  2  0  0  0  0  0  0
   -2.3510    0.0130    6.0410 C   0  0  0  0  0  2  0  0  0  0  0  0
   -3.3940    1.3090    4.2740 C   0  0  0  0  0  1  0  0  0  0  0  0
   -2.1330    0.6170    4.7420 C   0  0  0  0  0  2  0  0  0  0  0  0
  1  3  1  0  0  0  0
  1  2  2  0  0  0  0
  4  5  1  0  0  0  0
  4  3  2  0  0  0  0
  5 10  1  0  0  0  0
  6  7  1  0  0  0  0
  6  5  2  0  0  0  0
  7  8  2  0  0  0  0
  8 11  1  0  0  0  0
  8  9  1  0  0  0  0
 10  9  2  0  0  0  0
 11 12  1  0  0  0  0
 13 14  1  0  0  0  0
 13  1  1  0  0  0  0
 14 17  1  6  0  0  0
 14 15  1  0  0  0  0
 16 15  1  0  0  0  0
 18 17  1  0  0  0  0
 19 20  1  0  0  0  0
 20 18  1  0  0  0  0
M  END
>  <MODEL>
2

>  <REMARK>
 VINA RESULT:      -3.1      6.288      7.398
  Name = bg33_1_ligand
  12 active torsions:
  status: ('A' for Active; 'I' for Inactive)
    1  A    between atoms: C_1  and  C_2
    2  A    between atoms: C_2  and  C_3
    3  A    between atoms: C_3  and  C_4
    4  A    between atoms: C_4  and  C_5
    5  A    between atoms: C_5  and  C_6
    6  A    between atoms: C_5  and  O_8
    7  A    between atoms: C_6  and  C_7
    8  A    between atoms: O_8  and  C_9
    9  A    between atoms: C_9  and  C_11
   10  A    between atoms: C_12  and  C_13
   11  A    between atoms: C_16  and  O_17
   12  A    between atoms: O_17  and  C_18
                            x       y       z     vdW  Elec       q    Type
                         _______ _______ _______ _____ _____    ______ ____

>  <TORSDO>
F 9

$$$$
bg33_1_ligand
 OpenBabel10042615103D

 20 20  0  0  1  0  0  0  0  0999 V2000
    0.2470   -0.7410    8.3500 C   0  0  0  0  0  0  0  0  0  0  0  0
   -0.3340   -0.2570    9.2850 O   0  0  0  0  0  0  0  0  0  0  0  0
    1.5190   -1.3250    8.5110 C   0  0  0  0  0  3  0  0  0  0  0  0
    2.3190   -1.2670    7.5420 C   0  0  0  0  0  3  0  0  0  0  0  0
    3.5310   -1.9200    7.4930 C   0  0  0  0  0  0  0  0  0  0  0  0
    3.7800   -2.9940    8.2550 C   0  0  0  0  0  3  0  0  0  0  0  0
    4.9680   -3.6480    8.2200 C   0  0  0  0  0  3  0  0  0  0  0  0
    5.9040   -3.1900    7.3400 C   0  0  0  0  0  0  0  0  0  0  0  0
    5.7050   -2.1470    6.5600 C   0  0  0  0  0  3  0  0  0  0  0  0
    4.5250   -1.4930    6.6550 C   0  0  0  0  0  3  0  0  0  0  0  0
    7.0790   -3.7670    7.2600 O   0  0  0  0  0  0  0  0  0  0  0  0
    7.0980   -5.0680    7.7380 C   0  0  0  0  0  1  0  0  0  0  0  0
   -0.2940   -0.7340    7.1800 O   0  0  0  0  0  0  0  0  0  0  0  0
   -1.4760   -1.1740    7.1950 C   0  0  1  0  0  3  0  0  0  0  0  0
   -2.4250   -0.2640    6.4930 C   0  0  0  0  0  2  0  0  0  0  0  0
   -1.9190    0.2550    5.2800 C   0  0  0  0  0  1  0  0  0  0  0  0
   -1.6090   -2.5560    6.9920 C   0  0  0  0  0  2  0  0  0  0  0  0
   -2.3940   -3.2060    7.9790 C   0  0  0  0  0  2  0  0  0  0  0  0
   -4.5380   -3.5780    6.9030 C   0  0  0  0  0  1  0  0  0  0  0  0
   -3.1690   -4.1490    7.1980 C   0  0  0  0  0  2  0  0  0  0  0  0
  1  3  1  0  0  0  0
  1  2  2  0  0  0  0
  4  3  2  0  0  0  0
  5  4  1  0  0  0  0
  5  6  1  0  0  0  0
  7  6  2  0  0  0  0
  8  7  1  0  0  0  0
  9 10  1  0  0  0  0
  9  8  2  0  0  0  0
 10  5  2  0  0  0  0
 11  8  1  0  0  0  0
 11 12  1  0  0  0  0
 13 14  1  0  0  0  0
 13  1  1  0  0  0  0
 14 15  1  6  0  0  0
 16 15  1  0  0  0  0
 17 14  1  0  0  0  0
 17 18  1  0  0  0  0
 19 20  1  0  0  0  0
 20 18  1  0  0  0  0
M  END
>  <MODEL>
3

>  <REMARK>
 VINA RESULT:      -3.1      4.555      6.635
  Name = bg33_1_ligand
  12 active torsions:
  status: ('A' for Active; 'I' for Inactive)
    1  A    between atoms: C_1  and  C_2
    2  A    between atoms: C_2  and  C_3
    3  A    between atoms: C_3  and  C_4
    4  A    between atoms: C_4  and  C_5
    5  A    between atoms: C_5  and  C_6
    6  A    between atoms: C_5  and  O_8
    7  A    between atoms: C_6  and  C_7
    8  A    between atoms: O_8  and  C_9
    9  A    between atoms: C_9  and  C_11
   10  A    between atoms: C_12  and  C_13
   11  A    between atoms: C_16  and  O_17
   12  A    between atoms: O_17  and  C_18
                            x       y       z     vdW  Elec       q    Type
                         _______ _______ _______ _____ _____    ______ ____

>  <TORSDO>
F 9

$$$$
bg33_1_ligand
 OpenBabel10042615103D

 20 20  0  0  1  0  0  0  0  0999 V2000
   -3.2980   -7.7240    7.0280 C   0  0  0  0  0  0  0  0  0  0  0  0
   -4.0580   -8.1340    6.1920 O   0  0  0  0  0  0  0  0  0  0  0  0
   -2.9060   -6.3710    7.0500 C   0  0  0  0  0  3  0  0  0  0  0  0
   -3.7910   -5.5060    7.2710 C   0  0  0  0  0  3  0  0  0  0  0  0
   -3.5930   -4.1460    7.1730 C   0  0  0  0  0  0  0  0  0  0  0  0
   -4.6200   -3.2970    7.0210 C   0  0  0  0  0  3  0  0  0  0  0  0
   -4.4440   -1.9560    6.9220 C   0  0  0  0  0  3  0  0  0  0  0  0
   -3.1660   -1.4890    7.0200 C   0  0  0  0  0  0  0  0  0  0  0  0
   -2.1240   -2.2780    7.1810 C   0  0  0  0  0  3  0  0  0  0  0  0
   -2.3340   -3.6140    7.2320 C   0  0  0  0  0  3  0  0  0  0  0  0
   -2.9190   -0.2040    6.9220 O   0  0  0  0  0  0  0  0  0  0  0  0
   -2.0710    0.1260    5.8770 C   0  0  0  0  0  1  0  0  0  0  0  0
   -2.8330   -8.5240    7.9260 O   0  0  0  0  0  0  0  0  0  0  0  0
   -3.7470   -9.0950    8.5810 C   0  0  1  0  0  3  0  0  0  0  0  0
   -3.4540  -10.5380    8.8170 C   0  0  0  0  0  2  0  0  0  0  0  0
   -2.9880  -11.2150    7.6690 C   0  0  0  0  0  1  0  0  0  0  0  0
   -4.2930   -8.3480    9.6360 C   0  0  0  0  0  2  0  0  0  0  0  0
   -3.4240   -8.2110   10.7490 C   0  0  0  0  0  2  0  0  0  0  0  0
   -1.7650   -6.4480   10.5770 C   0  0  0  0  0  1  0  0  0  0  0  0
   -3.2210   -6.7780   10.8200 C   0  0  0  0  0  2  0  0  0  0  0  0
  1  3  1  0  0  0  0
  1 13  1  0  0  0  0
  2  1  2  0  0  0  0
  3  4  2  0  0  0  0
  5 10  1  0  0  0  0
  5  4  1  0  0  0  0
  6  5  2  0  0  0  0
  7  8  2  0  0  0  0
  7  6  1  0  0  0  0
  8  9  1  0  0  0  0
  9 10  2  0  0  0  0
 11  8  1  0  0  0  0
 12 11  1  0  0  0  0
 13 14  1  0  0  0  0
 14 15  1  1  0  0  0
 14 17  1  0  0  0  0
 16 15  1  0  0  0  0
 17 18  1  0  0  0  0
 18 20  1  0  0  0  0
 19 20  1  0  0  0  0
M  END
>  <MODEL>
4

>  <REMARK>
 VINA RESULT:      -3.1      6.356      9.872
  Name = bg33_1_ligand
  12 active torsions:
  status: ('A' for Active; 'I' for Inactive)
    1  A    between atoms: C_1  and  C_2
    2  A    between atoms: C_2  and  C_3
    3  A    between atoms: C_3  and  C_4
    4  A    between atoms: C_4  and  C_5
    5  A    between atoms: C_5  and  C_6
    6  A    between atoms: C_5  and  O_8
    7  A    between atoms: C_6  and  C_7
    8  A    between atoms: O_8  and  C_9
    9  A    between atoms: C_9  and  C_11
   10  A    between atoms: C_12  and  C_13
   11  A    between atoms: C_16  and  O_17
   12  A    between atoms: O_17  and  C_18
                            x       y       z     vdW  Elec       q    Type
                         _______ _______ _______ _____ _____    ______ ____

>  <TORSDO>
F 9

$$$$
bg33_1_ligand
 OpenBabel10042615103D

 20 20  0  0  1  0  0  0  0  0999 V2000
   -3.4960   -5.8190    7.6810 C   0  0  0  0  0  0  0  0  0  0  0  0
   -4.6910   -5.7790    7.8070 O   0  0  0  0  0  0  0  0  0  0  0  0
   -2.7690   -4.6770    7.2950 C   0  0  0  0  0  3  0  0  0  0  0  0
   -3.2510   -3.5500    7.5770 C   0  0  0  0  0  3  0  0  0  0  0  0
   -2.7370   -2.3500    7.1350 C   0  0  0  0  0  0  0  0  0  0  0  0
   -1.4320   -2.2020    6.8660 C   0  0  0  0  0  3  0  0  0  0  0  0
   -0.9100   -1.0290    6.4320 C   0  0  0  0  0  3  0  0  0  0  0  0
   -1.7800    0.0050    6.2390 C   0  0  0  0  0  0  0  0  0  0  0  0
   -3.0710   -0.0910    6.4770 C   0  0  0  0  0  3  0  0  0  0  0  0
   -3.5500   -1.2640    6.9520 C   0  0  0  0  0  3  0  0  0  0  0  0
   -1.3430    1.1720    5.8310 O   0  0  0  0  0  0  0  0  0  0  0  0
   -1.8130    1.5400    4.5790 C   0  0  0  0  0  1  0  0  0  0  0  0
   -2.8600   -6.9190    7.9050 O   0  0  0  0  0  0  0  0  0  0  0  0
   -2.9570   -7.2940    9.1050 C   0  0  1  0  0  3  0  0  0  0  0  0
   -3.4190   -8.7070    9.2190 C   0  0  0  0  0  2  0  0  0  0  0  0
   -3.0670   -9.5070    8.1090 C   0  0  0  0  0  1  0  0  0  0  0  0
   -1.9320   -6.8600    9.9600 C   0  0  0  0  0  2  0  0  0  0  0  0
   -2.3760   -6.5380   11.2680 C   0  0  0  0  0  2  0  0  0  0  0  0
   -1.4590   -4.3390   10.8080 C   0  0  0  0  0  1  0  0  0  0  0  0
   -2.6990   -5.1300   11.1560 C   0  0  0  0  0  2  0  0  0  0  0  0
  1  2  2  0  0  0  0
  1 13  1  0  0  0  0
  3  4  2  0  0  0  0
  3  1  1  0  0  0  0
  5  4  1  0  0  0  0
  6  5  2  0  0  0  0
  7  6  1  0  0  0  0
  8  7  2  0  0  0  0
  8  9  1  0  0  0  0
  9 10  2  0  0  0  0
 10  5  1  0  0  0  0
 11  8  1  0  0  0  0
 12 11  1  0  0  0  0
 13 14  1  0  0  0  0
 14 15  1  6  0  0  0
 14 17  1  0  0  0  0
 16 15  1  0  0  0  0
 17 18  1  0  0  0  0
 19 20  1  0  0  0  0
 20 18  1  0  0  0  0
M  END
>  <MODEL>
5

>  <REMARK>
 VINA RESULT:      -3.1      5.742      9.614
  Name = bg33_1_ligand
  12 active torsions:
  status: ('A' for Active; 'I' for Inactive)
    1  A    between atoms: C_1  and  C_2
    2  A    between atoms: C_2  and  C_3
    3  A    between atoms: C_3  and  C_4
    4  A    between atoms: C_4  and  C_5
    5  A    between atoms: C_5  and  C_6
    6  A    between atoms: C_5  and  O_8
    7  A    between atoms: C_6  and  C_7
    8  A    between atoms: O_8  and  C_9
    9  A    between atoms: C_9  and  C_11
   10  A    between atoms: C_12  and  C_13
   11  A    between atoms: C_16  and  O_17
   12  A    between atoms: O_17  and  C_18
                            x       y       z     vdW  Elec       q    Type
                         _______ _______ _______ _____ _____    ______ ____

>  <TORSDO>
F 9

$$$$
bg33_1_ligand
 OpenBabel10042615103D

 20 20  0  0  1  0  0  0  0  0999 V2000
   -0.7290   -0.9870    6.6720 C   0  0  0  0  0  0  0  0  0  0  0  0
    0.2210   -0.3010    6.9360 O   0  0  0  0  0  0  0  0  0  0  0  0
   -1.0620   -2.1020    7.4670 C   0  0  0  0  0  3  0  0  0  0  0  0
   -2.0050   -2.8380    7.0810 C   0  0  0  0  0  3  0  0  0  0  0  0
   -2.5430   -3.8680    7.8220 C   0  0  0  0  0  0  0  0  0  0  0  0
   -2.5740   -3.8260    9.1610 C   0  0  0  0  0  3  0  0  0  0  0  0
   -3.0980   -4.8310    9.9060 C   0  0  0  0  0  3  0  0  0  0  0  0
   -3.6360   -5.8880    9.2320 C   0  0  0  0  0  0  0  0  0  0  0  0
   -3.6420   -5.9730    7.9180 C   0  0  0  0  0  3  0  0  0  0  0  0
   -3.0700   -4.9720    7.2090 C   0  0  0  0  0  3  0  0  0  0  0  0
   -4.1520   -6.9000    9.8880 O   0  0  0  0  0  0  0  0  0  0  0  0
   -4.1140   -8.0980    9.1900 C   0  0  0  0  0  1  0  0  0  0  0  0
   -1.4660   -0.7050    5.6520 O   0  0  0  0  0  0  0  0  0  0  0  0
   -1.9490    0.4570    5.7150 C   0  0  1  0  0  3  0  0  0  0  0  0
   -1.8570    1.1780    4.4130 C   0  0  0  0  0  2  0  0  0  0  0  0
   -1.0550    2.3390    4.4650 C   0  0  0  0  0  1  0  0  0  0  0  0
   -3.1320    0.5810    6.4590 C   0  0  0  0  0  2  0  0  0  0  0  0
   -4.2710    0.0270    5.8190 C   0  0  0  0  0  2  0  0  0  0  0  0
   -5.5030   -1.9730    6.4290 C   0  0  0  0  0  1  0  0  0  0  0  0
   -4.9490   -0.6490    6.9070 C   0  0  0  0  0  2  0  0  0  0  0  0
  1  2  2  0  0  0  0
  1  3  1  0  0  0  0
  4  3  2  0  0  0  0
  4  5  1  0  0  0  0
  5  6  1  0  0  0  0
  6  7  2  0  0  0  0
  8 11  1  0  0  0  0
  8  7  1  0  0  0  0
  9  8  2  0  0  0  0
 10  5  2  0  0  0  0
 10  9  1  0  0  0  0
 12 11  1  0  0  0  0
 13 14  1  0  0  0  0
 13  1  1  0  0  0  0
 14 15  1  6  0  0  0
 14 17  1  0  0  0  0
 15 16  1  0  0  0  0
 18 17  1  0  0  0  0
 18 20  1  0  0  0  0
 19 20  1  0  0  0  0
M  END
>  <MODEL>
6

>  <REMARK>
 VINA RESULT:      -3.0      6.089      7.235
  Name = bg33_1_ligand
  12 active torsions:
  status: ('A' for Active; 'I' for Inactive)
    1  A    between atoms: C_1  and  C_2
    2  A    between atoms: C_2  and  C_3
    3  A    between atoms: C_3  and  C_4
    4  A    between atoms: C_4  and  C_5
    5  A    between atoms: C_5  and  C_6
    6  A    between atoms: C_5  and  O_8
    7  A    between atoms: C_6  and  C_7
    8  A    between atoms: O_8  and  C_9
    9  A    between atoms: C_9  and  C_11
   10  A    between atoms: C_12  and  C_13
   11  A    between atoms: C_16  and  O_17
   12  A    between atoms: O_17  and  C_18
                            x       y       z     vdW  Elec       q    Type
                         _______ _______ _______ _____ _____    ______ ____

>  <TORSDO>
F 9

$$$$
bg33_1_ligand
 OpenBabel10042615103D

 20 20  0  0  1  0  0  0  0  0999 V2000
    8.4350   -7.0820    9.3670 C   0  0  0  0  0  0  0  0  0  0  0  0
    8.1830   -7.5490   10.4450 O   0  0  0  0  0  0  0  0  0  0  0  0
    7.8660   -5.8610    8.9540 C   0  0  0  0  0  3  0  0  0  0  0  0
    6.6170   -5.7410    9.0250 C   0  0  0  0  0  3  0  0  0  0  0  0
    5.9070   -4.6740    8.5190 C   0  0  0  0  0  0  0  0  0  0  0  0
    4.6170   -4.4800    8.8280 C   0  0  0  0  0  3  0  0  0  0  0  0
    3.9030   -3.4370    8.3380 C   0  0  0  0  0  3  0  0  0  0  0  0
    4.5640   -2.5540    7.5360 C   0  0  0  0  0  0  0  0  0  0  0  0
    5.8330   -2.6910    7.2110 C   0  0  0  0  0  3  0  0  0  0  0  0
    6.5010   -3.7680    7.6830 C   0  0  0  0  0  3  0  0  0  0  0  0
    3.9330   -1.5260    7.0180 O   0  0  0  0  0  0  0  0  0  0  0  0
    2.6330   -1.3770    7.4770 C   0  0  0  0  0  1  0  0  0  0  0  0
    9.2410   -7.6970    8.5690 O   0  0  0  0  0  0  0  0  0  0  0  0
    8.6620   -8.5980    7.9030 C   0  0  1  0  0  3  0  0  0  0  0  0
    8.6070   -8.2750    6.4480 C   0  0  0  0  0  2  0  0  0  0  0  0
    7.3300   -7.8610    6.0100 C   0  0  0  0  0  1  0  0  0  0  0  0
    8.9620   -9.9160    8.2790 C   0  0  0  0  0  2  0  0  0  0  0  0
    7.8170  -10.7320    8.4690 C   0  0  0  0  0  2  0  0  0  0  0  0
    7.7380  -11.0910   10.8680 C   0  0  0  0  0  1  0  0  0  0  0  0
    8.2310  -11.6170    9.5390 C   0  0  0  0  0  2  0  0  0  0  0  0
  1  2  2  0  0  0  0
  3  4  2  0  0  0  0
  3  1  1  0  0  0  0
  5  6  1  0  0  0  0
  5  4  1  0  0  0  0
  7  6  2  0  0  0  0
  8  7  1  0  0  0  0
  9  8  2  0  0  0  0
  9 10  1  0  0  0  0
 10  5  2  0  0  0  0
 11 12  1  0  0  0  0
 11  8  1  0  0  0  0
 13  1  1  0  0  0  0
 14 15  1  6  0  0  0
 14 17  1  0  0  0  0
 14 13  1  0  0  0  0
 16 15  1  0  0  0  0
 17 18  1  0  0  0  0
 18 20  1  0  0  0  0
 20 19  1  0  0  0  0
M  END
>  <MODEL>
7

>  <REMARK>
 VINA RESULT:      -3.0      4.568      7.982
  Name = bg33_1_ligand
  12 active torsions:
  status: ('A' for Active; 'I' for Inactive)
    1  A    between atoms: C_1  and  C_2
    2  A    between atoms: C_2  and  C_3
    3  A    between atoms: C_3  and  C_4
    4  A    between atoms: C_4  and  C_5
    5  A    between atoms: C_5  and  C_6
    6  A    between atoms: C_5  and  O_8
    7  A    between atoms: C_6  and  C_7
    8  A    between atoms: O_8  and  C_9
    9  A    between atoms: C_9  and  C_11
   10  A    between atoms: C_12  and  C_13
   11  A    between atoms: C_16  and  O_17
   12  A    between atoms: O_17  and  C_18
                            x       y       z     vdW  Elec       q    Type
                         _______ _______ _______ _____ _____    ______ ____

>  <TORSDO>
F 9

$$$$
bg33_1_ligand
 OpenBabel10042615103D

 20 20  0  0  1  0  0  0  0  0999 V2000
   -3.1070   -7.6290    7.2730 C   0  0  0  0  0  0  0  0  0  0  0  0
   -4.0940   -7.5380    6.5930 O   0  0  0  0  0  0  0  0  0  0  0  0
   -2.7050   -8.8690    7.8070 C   0  0  0  0  0  3  0  0  0  0  0  0
   -3.6010   -9.7040    8.0930 C   0  0  0  0  0  3  0  0  0  0  0  0
   -3.3770  -10.8890    8.7590 C   0  0  0  0  0  0  0  0  0  0  0  0
   -3.7770  -11.0670   10.0260 C   0  0  0  0  0  3  0  0  0  0  0  0
   -3.5640  -12.2260   10.6970 C   0  0  0  0  0  3  0  0  0  0  0  0
   -2.9510  -13.2360   10.0150 C   0  0  0  0  0  0  0  0  0  0  0  0
   -2.5490  -13.1170    8.7660 C   0  0  0  0  0  3  0  0  0  0  0  0
   -2.7390  -11.9310    8.1430 C   0  0  0  0  0  3  0  0  0  0  0  0
   -2.7040  -14.3810   10.6040 O   0  0  0  0  0  0  0  0  0  0  0  0
   -3.6270  -14.7200   11.5810 C   0  0  0  0  0  1  0  0  0  0  0  0
   -2.3950   -6.5820    7.5200 O   0  0  0  0  0  0  0  0  0  0  0  0
   -3.0990   -5.5920    7.8590 C   0  0  1  0  0  3  0  0  0  0  0  0
   -3.3330   -5.5450    9.3310 C   0  0  0  0  0  2  0  0  0  0  0  0
   -2.1440   -5.5020   10.0910 C   0  0  0  0  0  1  0  0  0  0  0  0
   -2.8120   -4.3900    7.1940 C   0  0  0  0  0  2  0  0  0  0  0  0
   -3.7870   -3.3790    7.3950 C   0  0  0  0  0  2  0  0  0  0  0  0
   -1.6210   -2.3520    7.0160 C   0  0  0  0  0  1  0  0  0  0  0  0
   -2.9790   -2.2070    7.6660 C   0  0  0  0  0  2  0  0  0  0  0  0
  1 13  1  0  0  0  0
  1  3  1  0  0  0  0
  2  1  2  0  0  0  0
  3  4  2  0  0  0  0
  4  5  1  0  0  0  0
  5  6  1  0  0  0  0
  6  7  2  0  0  0  0
  8 11  1  0  0  0  0
  8  7  1  0  0  0  0
  9  8  2  0  0  0  0
 10  5  2  0  0  0  0
 10  9  1  0  0  0  0
 11 12  1  0  0  0  0
 13 14  1  0  0  0  0
 14 17  1  1  0  0  0
 14 15  1  0  0  0  0
 15 16  1  0  0  0  0
 17 18  1  0  0  0  0
 18 20  1  0  0  0  0
 19 20  1  0  0  0  0
M  END
>  <MODEL>
8

>  <REMARK>
 VINA RESULT:      -3.0      6.770      8.176
  Name = bg33_1_ligand
  12 active torsions:
  status: ('A' for Active; 'I' for Inactive)
    1  A    between atoms: C_1  and  C_2
    2  A    between atoms: C_2  and  C_3
    3  A    between atoms: C_3  and  C_4
    4  A    between atoms: C_4  and  C_5
    5  A    between atoms: C_5  and  C_6
    6  A    between atoms: C_5  and  O_8
    7  A    between atoms: C_6  and  C_7
    8  A    between atoms: O_8  and  C_9
    9  A    between atoms: C_9  and  C_11
   10  A    between atoms: C_12  and  C_13
   11  A    between atoms: C_16  and  O_17
   12  A    between atoms: O_17  and  C_18
                            x       y       z     vdW  Elec       q    Type
                         _______ _______ _______ _____ _____    ______ ____

>  <TORSDO>
F 9

$$$$
bg33_1_ligand
 OpenBabel10042615103D

 20 20  0  0  1  0  0  0  0  0999 V2000
   -3.3520  -11.6420    8.0930 C   0  0  0  0  0  0  0  0  0  0  0  0
   -2.4520  -12.1460    8.7110 O   0  0  0  0  0  0  0  0  0  0  0  0
   -3.6020  -10.2590    8.1730 C   0  0  0  0  0  3  0  0  0  0  0  0
   -2.6520   -9.4740    7.9210 C   0  0  0  0  0  3  0  0  0  0  0  0
   -2.6990   -8.1090    8.1040 C   0  0  0  0  0  0  0  0  0  0  0  0
   -2.4370   -7.5520    9.2950 C   0  0  0  0  0  3  0  0  0  0  0  0
   -2.4800   -6.2110    9.4940 C   0  0  0  0  0  3  0  0  0  0  0  0
   -2.7690   -5.4320    8.4120 C   0  0  0  0  0  0  0  0  0  0  0  0
   -3.0230   -5.9280    7.2180 C   0  0  0  0  0  3  0  0  0  0  0  0
   -3.0140   -7.2720    7.0690 C   0  0  0  0  0  3  0  0  0  0  0  0
   -2.8370   -4.1280    8.5320 O   0  0  0  0  0  0  0  0  0  0  0  0
   -2.4470   -3.4380    7.3950 C   0  0  0  0  0  1  0  0  0  0  0  0
   -4.1030  -12.3710    7.3390 O   0  0  0  0  0  0  0  0  0  0  0  0
   -3.7100  -12.3840    6.1400 C   0  0  1  0  0  3  0  0  0  0  0  0
   -2.8920  -13.5910    5.8290 C   0  0  0  0  0  2  0  0  0  0  0  0
   -1.5580  -13.2920    5.4730 C   0  0  0  0  0  1  0  0  0  0  0  0
   -4.6510  -11.9580    5.1900 C   0  0  0  0  0  2  0  0  0  0  0  0
   -4.1680  -10.9450    4.3220 C   0  0  0  0  0  2  0  0  0  0  0  0
   -4.4350   -8.5540    3.9950 C   0  0  0  0  0  1  0  0  0  0  0  0
   -4.8480   -9.7600    4.8080 C   0  0  0  0  0  2  0  0  0  0  0  0
  1  3  1  0  0  0  0
  1  2  2  0  0  0  0
  4  5  1  0  0  0  0
  4  3  2  0  0  0  0
  5  6  1  0  0  0  0
  6  7  2  0  0  0  0
  8 11  1  0  0  0  0
  8  7  1  0  0  0  0
  9  8  2  0  0  0  0
 10  9  1  0  0  0  0
 10  5  2  0  0  0  0
 12 11  1  0  0  0  0
 13  1  1  0  0  0  0
 14 17  1  6  0  0  0
 14 13  1  0  0  0  0
 15 14  1  0  0  0  0
 16 15  1  0  0  0  0
 18 20  1  0  0  0  0
 18 17  1  0  0  0  0
 19 20  1  0  0  0  0
M  END
>  <MODEL>
9

>  <REMARK>
 VINA RESULT:      -3.0      7.968     10.564
  Name = bg33_1_ligand
  12 active torsions:
  status: ('A' for Active; 'I' for Inactive)
    1  A    between atoms: C_1  and  C_2
    2  A    between atoms: C_2  and  C_3
    3  A    between atoms: C_3  and  C_4
    4  A    between atoms: C_4  and  C_5
    5  A    between atoms: C_5  and  C_6
    6  A    between atoms: C_5  and  O_8
    7  A    between atoms: C_6  and  C_7
    8  A    between atoms: O_8  and  C_9
    9  A    between atoms: C_9  and  C_11
   10  A    between atoms: C_12  and  C_13
   11  A    between atoms: C_16  and  O_17
   12  A    between atoms: O_17  and  C_18
                            x       y       z     vdW  Elec       q    Type
                         _______ _______ _______ _____ _____    ______ ____

>  <TORSDO>
F 9

$$$$
