shuffle_control_esm0_dockpose9
     RDKit          3D

 20 20  0  0  0  0  0  0  0  0999 V2000
   -0.4110   12.1720    6.7860 C   0  0  0  0  0  0  0  0  0  0  0  0
   -0.2580   11.1270    5.7370 C   0  0  0  0  0  0  0  0  0  0  0  0
    1.1200   10.5910    5.4970 C   0  0  0  0  0  0  0  0  0  0  0  0
    1.2550    9.1210    5.2940 C   0  0  0  0  0  0  0  0  0  0  0  0
    2.0100    8.7260    4.0670 C   0  0  1  0  0  0  0  0  0  0  0  0
    1.3290    9.3710    2.8730 C   0  0  0  0  0  0  0  0  0  0  0  0
    2.2290   10.0260    1.8660 C   0  0  0  0  0  0  0  0  0  0  0  0
    3.3590    9.1570    4.2250 O   0  0  0  0  0  0  0  0  0  0  0  0
    4.3480    8.3230    4.6320 C   0  0  0  0  0  0  0  0  0  0  0  0
    5.2450    8.7020    5.3160 O   0  0  0  0  0  0  0  0  0  0  0  0
    4.2090    6.9170    4.1430 C   0  0  0  0  0  0  0  0  0  0  0  0
    4.9340    6.4770    3.1300 C   0  0  0  0  0  0  0  0  0  0  0  0
    4.7530    5.1290    2.5120 C   0  0  0  0  0  0  0  0  0  0  0  0
    4.0280    4.1890    3.1980 C   0  0  0  0  0  0  0  0  0  0  0  0
    3.8530    2.9110    2.6840 C   0  0  0  0  0  0  0  0  0  0  0  0
    4.3990    2.5680    1.4620 C   0  0  0  0  0  0  0  0  0  0  0  0
    4.2630    1.3340    0.9330 O   0  0  0  0  0  0  0  0  0  0  0  0
    5.1580    0.2970    1.3300 C   0  0  0  0  0  0  0  0  0  0  0  0
    5.1300    3.5270    0.7600 C   0  0  0  0  0  0  0  0  0  0  0  0
    5.2990    4.8130    1.2820 C   0  0  0  0  0  0  0  0  0  0  0  0
  2  1  1  0
  3  2  1  0
  4  3  1  0
  5  4  1  1
  6  5  1  0
  7  6  1  0
  8  5  1  0
  9  8  1  0
 10  9  2  0
 11  9  1  0
 12 11  2  3
 13 12  1  0
 14 13  1  0
 15 14  2  0
 16 15  1  0
 17 16  1  0
 18 17  1  0
 19 16  2  0
 20 13  2  0
 20 19  1  0
M  END
