bgox31_5_pose0_reference
     RDKit          3D

 17 18  0  0  0  0  0  0  0  0999 V2000
    5.2060    1.5360   -0.9350 C   0  0  0  0  0  0  0  0  0  0  0  0
    5.9980    0.3310   -0.7340 O   0  0  0  0  0  0  0  0  0  0  0  0
    6.1710   -0.2230    0.5840 C   0  0  0  0  0  0  0  0  0  0  0  0
    7.1810   -1.1310    0.6400 C   0  0  0  0  0  0  0  0  0  0  0  0
    7.4800   -1.7570    1.8690 C   0  0  0  0  0  0  0  0  0  0  0  0
    6.7970   -1.4780    3.0350 C   0  0  0  0  0  0  0  0  0  0  0  0
    7.1710   -2.1410    4.2610 C   0  0  0  0  0  0  0  0  0  0  0  0
    6.8530   -1.6210    5.3380 O   0  0  0  0  0  0  0  0  0  0  0  0
    8.0210   -3.3730    4.2260 C   0  0  0  0  0  0  0  0  0  0  0  0
    9.2300   -3.5080    4.8860 C   0  0  0  0  0  0  0  0  0  0  0  0
    9.9890   -4.7080    4.8060 C   0  0  0  0  0  0  0  0  0  0  0  0
    9.5610   -5.7860    4.0910 C   0  0  0  0  0  0  0  0  0  0  0  0
    8.3530   -5.7010    3.4410 C   0  0  0  0  0  0  0  0  0  0  0  0
    7.6220   -4.4910    3.4970 C   0  0  0  0  0  0  0  0  0  0  0  0
    5.7710   -0.5380    2.9790 C   0  0  0  0  0  0  0  0  0  0  0  0
    5.0700   -0.2470    4.1020 O   0  0  0  0  0  0  0  0  0  0  0  0
    5.4580    0.1010    1.7480 C   0  0  0  0  0  0  0  0  0  0  0  0
  2  1  1  0
  3  2  1  0
  4  3  1  0
  5  4  2  0
  6  5  1  0
  7  6  1  0
  8  7  2  0
  9  7  1  0
 10  9  2  0
 11 10  1  0
 12 11  2  0
 13 12  1  0
 14 13  2  0
 14  9  1  0
 15  6  2  0
 16 15  1  0
 17 15  1  0
 17  3  2  0
M  END
>  <structure>  (1) 
bgox31_5

>  <pose>  (1) 
0

>  <is_reference>  (1) 
1

>  <rmsd_to_reference_A>  (1) 
0.000

>  <vina_score>  (1) 


$$$$
