ox2_shuffle_pose0_reference
     RDKit          3D

 17 18  0  0  0  0  0  0  0  0999 V2000
   -5.6890   -7.1780    8.6380 C   0  0  0  0  0  0  0  0  0  0  0  0
   -4.4300   -6.6920    9.0270 O   0  0  0  0  0  0  0  0  0  0  0  0
   -3.7540   -5.8100    8.2220 C   0  0  0  0  0  0  0  0  0  0  0  0
   -2.8150   -4.9870    8.8240 C   0  0  0  0  0  0  0  0  0  0  0  0
   -2.1030   -4.0730    8.0770 C   0  0  0  0  0  0  0  0  0  0  0  0
   -2.3140   -3.9710    6.7080 C   0  0  0  0  0  0  0  0  0  0  0  0
   -1.5370   -2.9750    5.8880 C   0  0  0  0  0  0  0  0  0  0  0  0
   -1.7530   -2.8800    4.7010 O   0  0  0  0  0  0  0  0  0  0  0  0
   -0.5030   -2.1320    6.5240 C   0  0  0  0  0  0  0  0  0  0  0  0
   -0.8610   -1.1080    7.3930 C   0  0  0  0  0  0  0  0  0  0  0  0
    0.1220   -0.3180    7.9700 C   0  0  0  0  0  0  0  0  0  0  0  0
    1.4650   -0.5570    7.6870 C   0  0  0  0  0  0  0  0  0  0  0  0
    1.8230   -1.5710    6.8070 C   0  0  0  0  0  0  0  0  0  0  0  0
    0.8350   -2.3570    6.2100 C   0  0  0  0  0  0  0  0  0  0  0  0
   -3.2560   -4.8080    6.0920 C   0  0  0  0  0  0  0  0  0  0  0  0
   -3.4660   -4.7170    4.7490 O   0  0  0  0  0  0  0  0  0  0  0  0
   -3.9700   -5.7190    6.8600 C   0  0  0  0  0  0  0  0  0  0  0  0
  2  1  1  0
  3  2  1  0
  4  3  1  0
  5  4  2  0
  6  5  1  0
  7  6  1  0
  8  7  2  0
  9  7  1  0
 10  9  2  0
 11 10  1  0
 12 11  2  0
 13 12  1  0
 14 13  2  0
 14  9  1  0
 15  6  2  0
 16 15  1  0
 17  3  2  0
 17 15  1  0
M  END
>  <structure>  (1) 
ox2_shuffle

>  <pose>  (1) 
0

>  <is_reference>  (1) 
1

>  <rmsd_to_reference_A>  (1) 
0.000

>  <vina_score>  (1) 


$$$$
