bg33_1_dockpose2
     RDKit          3D

 20 20  0  0  0  0  0  0  0  0999 V2000
   -3.3940    1.3090    4.2740 C   0  0  0  0  0  0  0  0  0  0  0  0
   -2.1330    0.6170    4.7420 C   0  0  0  0  0  0  0  0  0  0  0  0
   -2.3510    0.0130    6.0410 C   0  0  0  0  0  0  0  0  0  0  0  0
   -1.2550   -0.8820    6.1550 C   0  0  0  0  0  0  0  0  0  0  0  0
   -1.3690   -1.7820    7.2250 C   0  0  2  0  0  0  0  0  0  0  0  0
   -0.3030   -1.7780    8.2670 C   0  0  0  0  0  0  0  0  0  0  0  0
    0.9430   -1.3040    7.7980 C   0  0  0  0  0  0  0  0  0  0  0  0
   -1.7290   -2.9510    6.9160 O   0  0  0  0  0  0  0  0  0  0  0  0
   -2.7200   -3.3650    7.6310 C   0  0  0  0  0  0  0  0  0  0  0  0
   -3.5390   -2.5830    8.0320 O   0  0  0  0  0  0  0  0  0  0  0  0
   -2.8240   -4.7390    7.9220 C   0  0  0  0  0  0  0  0  0  0  0  0
   -2.9660   -5.5350    6.9600 C   0  0  0  0  0  0  0  0  0  0  0  0
   -3.2330   -6.8800    7.0940 C   0  0  0  0  0  0  0  0  0  0  0  0
   -4.0830   -7.5120    6.2720 C   0  0  0  0  0  0  0  0  0  0  0  0
   -4.3590   -8.8340    6.3910 C   0  0  0  0  0  0  0  0  0  0  0  0
   -3.7020   -9.5200    7.3700 C   0  0  0  0  0  0  0  0  0  0  0  0
   -3.9260  -10.8000    7.5490 O   0  0  0  0  0  0  0  0  0  0  0  0
   -2.7880  -11.5330    7.8460 C   0  0  0  0  0  0  0  0  0  0  0  0
   -2.8490   -8.9510    8.1960 C   0  0  0  0  0  0  0  0  0  0  0  0
   -2.6320   -7.6210    8.0760 C   0  0  0  0  0  0  0  0  0  0  0  0
  2  1  1  0
  3  2  1  0
  4  3  1  0
  5  4  1  6
  6  5  1  0
  7  6  1  0
  8  5  1  0
  9  8  1  0
 10  9  2  0
 11  9  1  0
 12 11  2  3
 13 12  1  0
 14 13  1  0
 15 14  2  0
 16 15  1  0
 17 16  1  0
 18 17  1  0
 19 16  2  0
 20 13  2  0
 20 19  1  0
M  END
