bg33_2_ligand
     RDKit          3D

 44 44  0  0  0  0  0  0  0  0999 V2000
    2.7400   -1.4940   -6.0820 C   0  0  1  0  0  0  0  0  0  0  0  0
    3.7810   -2.5670   -5.7160 C   0  0  1  0  0  0  0  0  0  0  0  0
    4.5680   -2.1310   -4.5070 C   0  0  1  0  0  0  0  0  0  0  0  0
    5.6500   -3.1480   -4.1060 C   0  0  1  0  0  0  0  0  0  0  0  0
    6.5650   -2.5840   -3.0570 C   0  0  1  0  0  0  0  0  0  0  0  0
    7.2040   -1.3250   -3.6080 C   0  0  1  0  0  0  0  0  0  0  0  0
    8.4100   -1.6950   -4.5580 C   0  0  1  0  0  0  0  0  0  0  0  0
    5.8500   -2.3830   -1.7960 O   0  0  0  0  0  0  0  0  0  0  0  0
    5.5720   -3.5250   -0.9910 C   0  0  0  0  0  0  0  0  0  0  0  0
    5.9660   -4.6090   -1.3600 O   0  0  0  0  0  0  0  0  0  0  0  0
    4.7510   -3.4310    0.2610 C   0  0  0  0  0  0  0  0  0  0  0  0
    4.4600   -2.2580    0.9090 C   0  0  0  0  0  0  0  0  0  0  0  0
    3.5050   -2.2530    2.0780 C   0  0  0  0  0  0  0  0  0  0  0  0
    2.6980   -3.3450    2.3260 C   0  0  0  0  0  0  0  0  0  0  0  0
    1.8180   -3.2810    3.4030 C   0  0  0  0  0  0  0  0  0  0  0  0
    1.7160   -2.1720    4.2320 C   0  0  0  0  0  0  0  0  0  0  0  0
    0.8010   -2.1310    5.2790 O   0  0  0  0  0  0  0  0  0  0  0  0
    0.8280   -3.2610    6.1610 C   0  0  1  0  0  0  0  0  0  0  0  0
    2.5170   -1.0940    3.9430 C   0  0  0  0  0  0  0  0  0  0  0  0
    3.4200   -1.1260    2.8720 C   0  0  0  0  0  0  0  0  0  0  0  0
    2.3203   -1.0614   -5.1618 H   0  0  0  0  0  0  0  0  0  0  0  0
    3.2225   -0.7015   -6.6729 H   0  0  0  0  0  0  0  0  0  0  0  0
    1.9332   -1.9523   -6.6729 H   0  0  0  0  0  0  0  0  0  0  0  0
    3.2660   -3.5132   -5.4935 H   0  0  0  0  0  0  0  0  0  0  0  0
    4.4686   -2.7065   -6.5632 H   0  0  0  0  0  0  0  0  0  0  0  0
    5.0539   -1.1699   -4.7310 H   0  0  0  0  0  0  0  0  0  0  0  0
    3.8647   -2.0443   -3.6657 H   0  0  0  0  0  0  0  0  0  0  0  0
    5.1636   -4.0514   -3.7094 H   0  0  0  0  0  0  0  0  0  0  0  0
    6.2487   -3.3884   -4.9969 H   0  0  0  0  0  0  0  0  0  0  0  0
    7.3725   -3.2916   -2.8177 H   0  0  0  0  0  0  0  0  0  0  0  0
    6.4541   -0.7566   -4.1777 H   0  0  0  0  0  0  0  0  0  0  0  0
    7.5800   -0.7181   -2.7712 H   0  0  0  0  0  0  0  0  0  0  0  0
    9.2865   -1.9639   -3.9501 H   0  0  0  0  0  0  0  0  0  0  0  0
    8.1284   -2.5481   -5.1928 H   0  0  0  0  0  0  0  0  0  0  0  0
    8.6552   -0.8308   -5.1928 H   0  0  0  0  0  0  0  0  0  0  0  0
    4.3562   -4.3649    0.6875 H   0  0  0  0  0  0  0  0  0  0  0  0
    4.9239   -1.3179    0.5759 H   0  0  0  0  0  0  0  0  0  0  0  0
    2.7487   -4.2412    1.6902 H   0  0  0  0  0  0  0  0  0  0  0  0
    1.1738   -4.1491    3.6065 H   0  0  0  0  0  0  0  0  0  0  0  0
    0.8197   -2.9122    7.2042 H   0  0  0  0  0  0  0  0  0  0  0  0
   -0.0554   -3.8904    5.9778 H   0  0  0  0  0  0  0  0  0  0  0  0
    1.7404   -3.8474    5.9778 H   0  0  0  0  0  0  0  0  0  0  0  0
    2.4482   -0.1887    4.5640 H   0  0  0  0  0  0  0  0  0  0  0  0
    4.0597   -0.2556    2.6641 H   0  0  0  0  0  0  0  0  0  0  0  0
  2  1  1  0
  3  2  1  0
  4  3  1  0
  5  4  1  0
  6  5  1  0
  7  6  1  0
  8  5  1  0
  9  8  1  0
 10  9  2  0
 11  9  1  0
 12 11  2  3
 13 12  1  0
 14 13  1  0
 15 14  2  0
 16 15  1  0
 17 16  1  0
 18 17  1  0
 19 16  2  0
 20 19  1  0
 20 13  2  0
  1 21  1  1
  1 22  1  0
  1 23  1  0
  2 24  1  1
  2 25  1  0
  3 26  1  6
  3 27  1  0
  4 28  1  1
  4 29  1  0
  5 30  1  1
  6 31  1  6
  6 32  1  0
  7 33  1  1
  7 34  1  0
  7 35  1  0
 11 36  1  0
 12 37  1  0
 14 38  1  0
 15 39  1  0
 18 40  1  1
 18 41  1  0
 18 42  1  0
 19 43  1  0
 20 44  1  0
M  END
