/Users/cafierom/python_mac/peptidebuilder/runs/oxybenzone/folds/dock_stage/openfold3/bgox31_3_o3cof_ligand.sdf.ligand.pdb
 OpenBabel10092620513D

 17 18  0  0  0  0  0  0  0  0999 V2000
   -7.2730   -0.4280    6.7970 C   0  0  0  0  0  0  0  0  0  0  0  0
   -6.0840   -0.3830    6.0510 O   0  0  0  0  0  0  0  0  0  0  0  0
   -6.0660    0.4470    4.9600 C   0  0  0  0  0  0  0  0  0  0  0  0
   -5.2570    0.0900    3.9030 C   0  0  0  0  0  0  0  0  0  0  0  0
   -5.1710    0.9010    2.7980 C   0  0  0  0  0  0  0  0  0  0  0  0
   -5.8980    2.0750    2.7240 C   0  0  0  0  0  0  0  0  0  0  0  0
   -5.7870    2.9670    1.5410 C   0  0  0  0  0  0  0  0  0  0  0  0
   -5.5650    4.1650    1.7010 O   0  0  0  0  0  0  0  0  0  0  0  0
   -5.9670    2.4420    0.1510 C   0  0  0  0  0  0  0  0  0  0  0  0
   -5.4130    3.1310   -0.9280 C   0  0  0  0  0  0  0  0  0  0  0  0
   -5.5720    2.6340   -2.2290 C   0  0  0  0  0  0  0  0  0  0  0  0
   -6.3210    1.4670   -2.4550 C   0  0  0  0  0  0  0  0  0  0  0  0
   -6.8870    0.8070   -1.3820 C   0  0  0  0  0  0  0  0  0  0  0  0
   -6.7200    1.2970   -0.0890 C   0  0  0  0  0  0  0  0  0  0  0  0
   -6.7240    2.4680    3.8130 C   0  0  0  0  0  0  0  0  0  0  0  0
   -7.3870    3.6120    3.7400 O   0  0  0  0  0  0  0  0  0  0  0  0
   -6.8080    1.6190    4.9260 C   0  0  0  0  0  0  0  0  0  0  0  0
  2  1  1  0  0  0  0
  3  2  1  0  0  0  0
  4  3  2  0  0  0  0
  5  4  1  0  0  0  0
  6  5  2  0  0  0  0
  6 15  1  0  0  0  0
  7  8  2  0  0  0  0
  7  6  1  0  0  0  0
  9  7  1  0  0  0  0
 10  9  2  0  0  0  0
 11 10  1  0  0  0  0
 12 11  2  0  0  0  0
 12 13  1  0  0  0  0
 13 14  2  0  0  0  0
 14  9  1  0  0  0  0
 15 17  2  0  0  0  0
 16 15  1  0  0  0  0
 17  3  1  0  0  0  0
M  END
$$$$
