bgox31_2_ligand
     RDKit          3D

 17 18  0  0  0  0  0  0  0  0999 V2000
   -6.3040    2.3700   -3.6900 C   0  0  0  0  0  0  0  0  0  0  0  0
   -6.7240    2.5050   -2.3310 O   0  0  0  0  0  0  0  0  0  0  0  0
   -6.4730    1.4100   -1.5160 C   0  0  0  0  0  0  0  0  0  0  0  0
   -5.4540    1.4830   -0.5980 C   0  0  0  0  0  0  0  0  0  0  0  0
   -5.2180    0.4100    0.2500 C   0  0  0  0  0  0  0  0  0  0  0  0
   -6.0070   -0.7140    0.2070 C   0  0  0  0  0  0  0  0  0  0  0  0
   -5.7470   -1.8840    1.0890 C   0  0  0  0  0  0  0  0  0  0  0  0
   -5.8310   -3.0280    0.6000 O   0  0  0  0  0  0  0  0  0  0  0  0
   -5.4110   -1.7640    2.5270 C   0  0  0  0  0  0  0  0  0  0  0  0
   -4.3660   -2.5390    3.0540 C   0  0  0  0  0  0  0  0  0  0  0  0
   -4.0430   -2.4280    4.4080 C   0  0  0  0  0  0  0  0  0  0  0  0
   -4.7700   -1.5670    5.2350 C   0  0  0  0  0  0  0  0  0  0  0  0
   -5.8210   -0.8190    4.7120 C   0  0  0  0  0  0  0  0  0  0  0  0
   -6.1510   -0.9300    3.3660 C   0  0  0  0  0  0  0  0  0  0  0  0
   -7.0760   -0.8010   -0.7420 C   0  0  0  0  0  0  0  0  0  0  0  0
   -7.8300   -1.8960   -0.7840 O   0  0  0  0  0  0  0  0  0  0  0  0
   -7.2940    0.2880   -1.6000 C   0  0  0  0  0  0  0  0  0  0  0  0
  2  1  1  0
  3  2  1  0
  4  3  1  0
  5  4  2  0
  6  5  1  0
  7  6  1  0
  8  7  2  0
  9  7  1  0
 10  9  2  0
 11 10  1  0
 12 11  2  0
 13 12  1  0
 14 13  2  0
 14  9  1  0
 15  6  2  0
 16 15  1  0
 17 15  1  0
 17  3  2  0
M  END
$$$$
