bgox31_4_ligand
     RDKit          3D

 17 18  0  0  0  0  0  0  0  0999 V2000
    1.2500   -2.4700    9.5240 C   0  0  0  0  0  0  0  0  0  0  0  0
    2.6590   -2.4810    9.5370 O   0  0  0  0  0  0  0  0  0  0  0  0
    3.2720   -3.6860    9.2550 C   0  0  0  0  0  0  0  0  0  0  0  0
    4.2850   -3.6930    8.3430 C   0  0  0  0  0  0  0  0  0  0  0  0
    4.9420   -4.8640    8.0540 C   0  0  0  0  0  0  0  0  0  0  0  0
    4.6130   -6.0340    8.6760 C   0  0  0  0  0  0  0  0  0  0  0  0
    5.3080   -7.3340    8.3980 C   0  0  0  0  0  0  0  0  0  0  0  0
    5.1960   -8.2240    9.2250 O   0  0  0  0  0  0  0  0  0  0  0  0
    6.0930   -7.6360    7.1640 C   0  0  0  0  0  0  0  0  0  0  0  0
    6.9090   -8.7750    7.1330 C   0  0  0  0  0  0  0  0  0  0  0  0
    7.6640   -9.0620    5.9880 C   0  0  0  0  0  0  0  0  0  0  0  0
    7.5830   -8.2480    4.8600 C   0  0  0  0  0  0  0  0  0  0  0  0
    6.7640   -7.1560    4.8820 C   0  0  0  0  0  0  0  0  0  0  0  0
    6.0270   -6.8580    6.0170 C   0  0  0  0  0  0  0  0  0  0  0  0
    3.5660   -6.0390    9.6510 C   0  0  0  0  0  0  0  0  0  0  0  0
    3.2600   -7.1610   10.2700 O   0  0  0  0  0  0  0  0  0  0  0  0
    2.9040   -4.8400    9.9060 C   0  0  0  0  0  0  0  0  0  0  0  0
  2  1  1  0
  3  2  1  0
  4  3  1  0
  5  4  2  0
  6  5  1  0
  7  6  1  0
  8  7  2  0
  9  7  1  0
 10  9  2  0
 11 10  1  0
 12 11  2  0
 13 12  1  0
 14 13  2  0
 14  9  1  0
 15  6  2  0
 16 15  1  0
 17 15  1  0
 17  3  2  0
M  END
$$$$
