bgox31_5_ligand
     RDKit          3D

 17 18  0  0  0  0  0  0  0  0999 V2000
   -9.8490    5.3640    0.1150 C   0  0  0  0  0  0  0  0  0  0  0  0
   -9.2230    6.0420   -0.9470 O   0  0  0  0  0  0  0  0  0  0  0  0
   -8.0140    5.5260   -1.3710 C   0  0  0  0  0  0  0  0  0  0  0  0
   -7.7710    5.4620   -2.7180 C   0  0  0  0  0  0  0  0  0  0  0  0
   -6.5570    4.9510   -3.1830 C   0  0  0  0  0  0  0  0  0  0  0  0
   -5.5850    4.5320   -2.3160 C   0  0  0  0  0  0  0  0  0  0  0  0
   -4.2810    3.9820   -2.7720 C   0  0  0  0  0  0  0  0  0  0  0  0
   -3.6070    3.2930   -1.9890 O   0  0  0  0  0  0  0  0  0  0  0  0
   -3.6890    4.1990   -4.1220 C   0  0  0  0  0  0  0  0  0  0  0  0
   -3.7810    5.4080   -4.7680 C   0  0  0  0  0  0  0  0  0  0  0  0
   -3.2410    5.5830   -6.0350 C   0  0  0  0  0  0  0  0  0  0  0  0
   -2.5520    4.5480   -6.6510 C   0  0  0  0  0  0  0  0  0  0  0  0
   -2.4270    3.3260   -6.0030 C   0  0  0  0  0  0  0  0  0  0  0  0
   -2.9770    3.1550   -4.7330 C   0  0  0  0  0  0  0  0  0  0  0  0
   -5.8320    4.6020   -0.9040 C   0  0  0  0  0  0  0  0  0  0  0  0
   -4.8910    4.1790   -0.0540 O   0  0  0  0  0  0  0  0  0  0  0  0
   -7.0560    5.1090   -0.4590 C   0  0  0  0  0  0  0  0  0  0  0  0
  2  1  1  0
  3  2  1  0
  4  3  1  0
  5  4  2  0
  6  5  1  0
  7  6  1  0
  8  7  2  0
  9  7  1  0
 10  9  2  0
 11 10  1  0
 12 11  2  0
 13 12  1  0
 14 13  2  0
 14  9  1  0
 15  6  2  0
 16 15  1  0
 17 15  1  0
 17  3  2  0
M  END
$$$$
