bgox31_2_ligand
     RDKit          3D

 29 30  0  0  0  0  0  0  0  0999 V2000
   -7.5716    2.5062   -3.0628 C   0  0  0  0  0  0  0  0  0  0  0  0
   -6.3824    2.4202   -2.3178 O   0  0  0  0  0  0  0  0  0  0  0  0
   -6.2386    1.3477   -1.5291 C   0  0  0  0  0  0  0  0  0  0  0  0
   -5.3381    1.4151   -0.4621 C   0  0  0  0  0  0  0  0  0  0  0  0
   -5.1997    0.3503    0.3920 C   0  0  0  0  0  0  0  0  0  0  0  0
   -5.9537   -0.7684    0.1663 C   0  0  0  0  0  0  0  0  0  0  0  0
   -5.8110   -1.9096    1.1318 C   0  0  0  0  0  0  0  0  0  0  0  0
   -5.9020   -3.0252    0.6996 O   0  0  0  0  0  0  0  0  0  0  0  0
   -5.4560   -1.7071    2.5060 C   0  0  0  0  0  0  0  0  0  0  0  0
   -4.8407   -2.7549    3.1509 C   0  0  0  0  0  0  0  0  0  0  0  0
   -4.5435   -2.6195    4.4885 C   0  0  0  0  0  0  0  0  0  0  0  0
   -4.8548   -1.4434    5.1272 C   0  0  0  0  0  0  0  0  0  0  0  0
   -5.4570   -0.4546    4.5115 C   0  0  0  0  0  0  0  0  0  0  0  0
   -5.7479   -0.5825    3.1697 C   0  0  0  0  0  0  0  0  0  0  0  0
   -6.8136   -0.8623   -0.9152 C   0  0  0  0  0  0  0  0  0  0  0  0
   -7.4710   -2.0155   -1.1113 O   0  0  0  0  0  0  0  0  0  0  0  0
   -6.9385    0.1996   -1.7583 C   0  0  0  0  0  0  0  0  0  0  0  0
   -8.3791    1.9869   -2.5258 H   0  0  0  0  0  0  0  0  0  0  0  0
   -7.8430    3.5634   -3.1994 H   0  0  0  0  0  0  0  0  0  0  0  0
   -7.4233    2.0357   -4.0460 H   0  0  0  0  0  0  0  0  0  0  0  0
   -4.7387    2.3244   -0.3068 H   0  0  0  0  0  0  0  0  0  0  0  0
   -4.4987    0.3952    1.2385 H   0  0  0  0  0  0  0  0  0  0  0  0
   -4.5917   -3.6799    2.6102 H   0  0  0  0  0  0  0  0  0  0  0  0
   -4.0632   -3.4421    5.0386 H   0  0  0  0  0  0  0  0  0  0  0  0
   -4.5902   -1.3276    6.1886 H   0  0  0  0  0  0  0  0  0  0  0  0
   -5.7259    0.4621    5.0567 H   0  0  0  0  0  0  0  0  0  0  0  0
   -6.2269    0.2522    2.6371 H   0  0  0  0  0  0  0  0  0  0  0  0
   -8.0913   -2.1076   -1.8773 H   0  0  0  0  0  0  0  0  0  0  0  0
   -7.6074    0.1312   -2.6290 H   0  0  0  0  0  0  0  0  0  0  0  0
  2  1  1  0
  3  2  1  0
  4  3  1  0
  5  4  2  0
  6  5  1  0
  7  6  1  0
  8  7  2  0
  9  7  1  0
 10  9  2  0
 11 10  1  0
 12 11  2  0
 13 12  1  0
 14 13  2  0
 14  9  1  0
 15  6  2  0
 16 15  1  0
 17 15  1  0
 17  3  2  0
  1 18  1  0
  1 19  1  0
  1 20  1  0
  4 21  1  0
  5 22  1  0
 10 23  1  0
 11 24  1  0
 12 25  1  0
 13 26  1  0
 14 27  1  0
 16 28  1  0
 17 29  1  0
M  END
$$$$
