bgox31_4_ligand
     RDKit          3D

 29 30  0  0  0  0  0  0  0  0999 V2000
    2.8181   -1.8759   10.2593 C   0  0  0  0  0  0  0  0  0  0  0  0
    2.0875   -2.8050    9.4147 O   0  0  0  0  0  0  0  0  0  0  0  0
    2.7552   -3.9612    9.0972 C   0  0  0  0  0  0  0  0  0  0  0  0
    2.1964   -4.8128    8.1836 C   0  0  0  0  0  0  0  0  0  0  0  0
    2.8382   -6.0565    7.8382 C   0  0  0  0  0  0  0  0  0  0  0  0
    4.0801   -6.3165    8.4351 C   0  0  0  0  0  0  0  0  0  0  0  0
    4.7431   -7.5737    8.0477 C   0  0  0  0  0  0  0  0  0  0  0  0
    4.1513   -8.6537    8.3798 O   0  0  0  0  0  0  0  0  0  0  0  0
    5.8739   -7.6640    7.1208 C   0  0  0  0  0  0  0  0  0  0  0  0
    6.2203   -8.9443    6.6687 C   0  0  0  0  0  0  0  0  0  0  0  0
    7.3581   -9.0939    5.8455 C   0  0  0  0  0  0  0  0  0  0  0  0
    8.1488   -8.0193    5.5872 C   0  0  0  0  0  0  0  0  0  0  0  0
    7.8612   -6.7560    6.0752 C   0  0  0  0  0  0  0  0  0  0  0  0
    6.7218   -6.5635    6.8822 C   0  0  0  0  0  0  0  0  0  0  0  0
    4.6155   -5.4446    9.3746 C   0  0  0  0  0  0  0  0  0  0  0  0
    5.8524   -5.7792    9.9523 O   0  0  0  0  0  0  0  0  0  0  0  0
    3.9731   -4.2409    9.7208 C   0  0  0  0  0  0  0  0  0  0  0  0
    2.3393   -0.8865   10.2156 H   0  0  0  0  0  0  0  0  0  0  0  0
    2.8117   -2.2409   11.2969 H   0  0  0  0  0  0  0  0  0  0  0  0
    3.8563   -1.7968    9.9047 H   0  0  0  0  0  0  0  0  0  0  0  0
    1.2428   -4.5444    7.7054 H   0  0  0  0  0  0  0  0  0  0  0  0
    2.3753   -6.7684    7.1390 H   0  0  0  0  0  0  0  0  0  0  0  0
    5.6157   -9.8190    6.9506 H   0  0  0  0  0  0  0  0  0  0  0  0
    7.6032  -10.0761    5.4152 H   0  0  0  0  0  0  0  0  0  0  0  0
    9.0482   -8.1580    4.9692 H   0  0  0  0  0  0  0  0  0  0  0  0
    8.5182   -5.9073    5.8344 H   0  0  0  0  0  0  0  0  0  0  0  0
    6.4993   -5.5773    7.3157 H   0  0  0  0  0  0  0  0  0  0  0  0
    6.2626   -5.1802   10.6254 H   0  0  0  0  0  0  0  0  0  0  0  0
    4.4129   -3.5481   10.4533 H   0  0  0  0  0  0  0  0  0  0  0  0
  2  1  1  0
  3  2  1  0
  4  3  1  0
  5  4  2  0
  6  5  1  0
  7  6  1  0
  8  7  2  0
  9  7  1  0
 10  9  2  0
 11 10  1  0
 12 11  2  0
 13 12  1  0
 14 13  2  0
 14  9  1  0
 15  6  2  0
 16 15  1  0
 17 15  1  0
 17  3  2  0
  1 18  1  0
  1 19  1  0
  1 20  1  0
  4 21  1  0
  5 22  1  0
 10 23  1  0
 11 24  1  0
 12 25  1  0
 13 26  1  0
 14 27  1  0
 16 28  1  0
 17 29  1  0
M  END
$$$$
