ox1_orig_f12_ligand
     RDKit          3D

 17 18  0  0  0  0  0  0  0  0999 V2000
   -1.7790   -3.8970   -6.1860 C   0  0  0  0  0  0  0  0  0  0  0  0
   -1.2290   -2.7130   -5.6730 O   0  0  0  0  0  0  0  0  0  0  0  0
   -1.9200   -2.1200   -4.6570 C   0  0  0  0  0  0  0  0  0  0  0  0
   -1.3000   -1.9770   -3.4700 C   0  0  0  0  0  0  0  0  0  0  0  0
   -1.9200   -1.3480   -2.4410 C   0  0  0  0  0  0  0  0  0  0  0  0
   -3.1900   -0.8330   -2.5620 C   0  0  0  0  0  0  0  0  0  0  0  0
   -3.7360   -0.1260   -1.3770 C   0  0  0  0  0  0  0  0  0  0  0  0
   -2.9750    0.5290   -0.6730 O   0  0  0  0  0  0  0  0  0  0  0  0
   -5.1200   -0.1740   -0.9320 C   0  0  0  0  0  0  0  0  0  0  0  0
   -6.0120   -1.1220   -1.3650 C   0  0  0  0  0  0  0  0  0  0  0  0
   -7.2980   -1.1510   -0.9080 C   0  0  0  0  0  0  0  0  0  0  0  0
   -7.7190   -0.2240    0.0140 C   0  0  0  0  0  0  0  0  0  0  0  0
   -6.8390    0.7340    0.4670 C   0  0  0  0  0  0  0  0  0  0  0  0
   -5.5470    0.7660    0.0010 C   0  0  0  0  0  0  0  0  0  0  0  0
   -3.8490   -0.9620   -3.8040 C   0  0  0  0  0  0  0  0  0  0  0  0
   -5.0490   -0.4830   -3.9840 O   0  0  0  0  0  0  0  0  0  0  0  0
   -3.1920   -1.6180   -4.8420 C   0  0  0  0  0  0  0  0  0  0  0  0
  2  1  1  0
  3  2  1  0
  4  3  1  0
  5  4  2  0
  6  5  1  0
  7  6  1  0
  8  7  2  0
  9  7  1  0
 10  9  2  0
 11 10  1  0
 12 11  2  0
 13 12  1  0
 14 13  2  0
 14  9  1  0
 15  6  2  0
 16 15  1  0
 17 15  1  0
 17  3  2  0
M  END
$$$$
