/Users/cafierom/python_mac/peptidebuilder/runs/oxybenzone/folds/dock_stage/openfold3/ox1_esm1_f8_o3cof_ligand.sdf.ligand.pdb
 OpenBabel10092620463D

 17 18  0  0  0  0  0  0  0  0999 V2000
    4.4510    1.6720    5.9300 C   0  0  0  0  0  0  0  0  0  0  0  0
    4.1280    0.8380    4.8350 O   0  0  0  0  0  0  0  0  0  0  0  0
    4.5790    1.3470    3.6550 C   0  0  0  0  0  0  0  0  0  0  0  0
    3.7160    1.4060    2.6070 C   0  0  0  0  0  0  0  0  0  0  0  0
    4.1340    1.9040    1.3890 C   0  0  0  0  0  0  0  0  0  0  0  0
    5.4220    2.3190    1.2230 C   0  0  0  0  0  0  0  0  0  0  0  0
    5.9180    2.8590   -0.0690 C   0  0  0  0  0  0  0  0  0  0  0  0
    7.0500    3.3150   -0.1720 O   0  0  0  0  0  0  0  0  0  0  0  0
    5.0960    2.8630   -1.2920 C   0  0  0  0  0  0  0  0  0  0  0  0
    4.4810    4.0360   -1.7160 C   0  0  0  0  0  0  0  0  0  0  0  0
    3.6980    4.0370   -2.8630 C   0  0  0  0  0  0  0  0  0  0  0  0
    3.5470    2.8640   -3.6140 C   0  0  0  0  0  0  0  0  0  0  0  0
    4.2040    1.6980   -3.2020 C   0  0  0  0  0  0  0  0  0  0  0  0
    4.9740    1.7050   -2.0630 C   0  0  0  0  0  0  0  0  0  0  0  0
    6.3360    2.2580    2.3120 C   0  0  0  0  0  0  0  0  0  0  0  0
    7.5900    2.6740    2.1260 O   0  0  0  0  0  0  0  0  0  0  0  0
    5.8870    1.7580    3.5220 C   0  0  0  0  0  0  0  0  0  0  0  0
  2  1  1  0  0  0  0
  3  2  1  0  0  0  0
  4  3  2  0  0  0  0
  5  4  1  0  0  0  0
  6  5  2  0  0  0  0
  6 15  1  0  0  0  0
  7  6  1  0  0  0  0
  8  7  2  0  0  0  0
  9  7  1  0  0  0  0
 10  9  1  0  0  0  0
 11 10  2  0  0  0  0
 12 13  2  0  0  0  0
 12 11  1  0  0  0  0
 13 14  1  0  0  0  0
 14  9  2  0  0  0  0
 15 17  2  0  0  0  0
 16 15  1  0  0  0  0
 17  3  1  0  0  0  0
M  END
$$$$
