ox2_shuffle_esm0_ligand
     RDKit          3D

 29 30  0  0  0  0  0  0  0  0999 V2000
    2.5412    8.3254   -0.1597 C   0  0  0  0  0  0  0  0  0  0  0  0
    2.3575    7.0104   -0.6920 O   0  0  0  0  0  0  0  0  0  0  0  0
    1.1196    6.5200   -0.9288 C   0  0  0  0  0  0  0  0  0  0  0  0
   -0.0128    7.0377   -0.3122 C   0  0  0  0  0  0  0  0  0  0  0  0
   -1.2424    6.4865   -0.5727 C   0  0  0  0  0  0  0  0  0  0  0  0
   -1.3719    5.4211   -1.4336 C   0  0  0  0  0  0  0  0  0  0  0  0
   -2.6800    4.7788   -1.7321 C   0  0  0  0  0  0  0  0  0  0  0  0
   -2.7935    4.2347   -2.8011 O   0  0  0  0  0  0  0  0  0  0  0  0
   -3.8226    4.6980   -0.8004 C   0  0  0  0  0  0  0  0  0  0  0  0
   -4.9410    3.9527   -1.1718 C   0  0  0  0  0  0  0  0  0  0  0  0
   -6.0184    3.8318   -0.3241 C   0  0  0  0  0  0  0  0  0  0  0  0
   -6.0123    4.4519    0.9089 C   0  0  0  0  0  0  0  0  0  0  0  0
   -4.9039    5.1824    1.2900 C   0  0  0  0  0  0  0  0  0  0  0  0
   -3.8191    5.2908    0.4385 C   0  0  0  0  0  0  0  0  0  0  0  0
   -0.2422    4.9184   -2.0647 C   0  0  0  0  0  0  0  0  0  0  0  0
   -0.3856    3.8825   -2.9346 O   0  0  0  0  0  0  0  0  0  0  0  0
    0.9984    5.4660   -1.7997 C   0  0  0  0  0  0  0  0  0  0  0  0
    1.5601    8.7952    0.0037 H   0  0  0  0  0  0  0  0  0  0  0  0
    3.0811    8.2617    0.7966 H   0  0  0  0  0  0  0  0  0  0  0  0
    3.1237    8.9304   -0.8700 H   0  0  0  0  0  0  0  0  0  0  0  0
    0.0759    7.8863    0.3822 H   0  0  0  0  0  0  0  0  0  0  0  0
   -2.1371    6.9023   -0.0863 H   0  0  0  0  0  0  0  0  0  0  0  0
   -4.9624    3.4560   -2.1530 H   0  0  0  0  0  0  0  0  0  0  0  0
   -6.8909    3.2366   -0.6316 H   0  0  0  0  0  0  0  0  0  0  0  0
   -6.8796    4.3653    1.5800 H   0  0  0  0  0  0  0  0  0  0  0  0
   -4.8838    5.6785    2.2715 H   0  0  0  0  0  0  0  0  0  0  0  0
   -2.9364    5.8629    0.7600 H   0  0  0  0  0  0  0  0  0  0  0  0
    0.4074    3.5094   -3.3951 H   0  0  0  0  0  0  0  0  0  0  0  0
    1.8937    5.0551   -2.2893 H   0  0  0  0  0  0  0  0  0  0  0  0
  2  1  1  0
  3  2  1  0
  4  3  1  0
  5  4  2  0
  6  5  1  0
  7  6  1  0
  8  7  2  0
  9  7  1  0
 10  9  2  0
 11 10  1  0
 12 11  2  0
 13 12  1  0
 14 13  2  0
 14  9  1  0
 15  6  2  0
 16 15  1  0
 17 15  1  0
 17  3  2  0
  1 18  1  0
  1 19  1  0
  1 20  1  0
  4 21  1  0
  5 22  1  0
 10 23  1  0
 11 24  1  0
 12 25  1  0
 13 26  1  0
 14 27  1  0
 16 28  1  0
 17 29  1  0
M  END
$$$$
