/Users/cafierom/python_mac/peptidebuilder/runs/oxybenzone/folds/dock_stage/openfold3/ox2_shuffle_esm0_o3cof_ligand.sdf.ligand.pdb
 OpenBabel10092620493D

 17 18  0  0  0  0  0  0  0  0999 V2000
    2.5260    7.7800    0.4560 C   0  0  0  0  0  0  0  0  0  0  0  0
    2.1860    7.3440   -0.8390 O   0  0  0  0  0  0  0  0  0  0  0  0
    1.0170    6.6320   -0.9850 C   0  0  0  0  0  0  0  0  0  0  0  0
    0.0800    6.5660   -0.0100 C   0  0  0  0  0  0  0  0  0  0  0  0
   -1.0700    5.8370   -0.2110 C   0  0  0  0  0  0  0  0  0  0  0  0
   -1.3200    5.1850   -1.3730 C   0  0  0  0  0  0  0  0  0  0  0  0
   -2.5560    4.4040   -1.5870 C   0  0  0  0  0  0  0  0  0  0  0  0
   -2.5850    3.5820   -2.5080 O   0  0  0  0  0  0  0  0  0  0  0  0
   -3.7610    4.5820   -0.7550 C   0  0  0  0  0  0  0  0  0  0  0  0
   -4.6400    3.5100   -0.6040 C   0  0  0  0  0  0  0  0  0  0  0  0
   -5.7790    3.6640    0.1890 C   0  0  0  0  0  0  0  0  0  0  0  0
   -6.0370    4.8930    0.8090 C   0  0  0  0  0  0  0  0  0  0  0  0
   -5.1630    5.9320    0.6380 C   0  0  0  0  0  0  0  0  0  0  0  0
   -4.0440    5.7710   -0.1520 C   0  0  0  0  0  0  0  0  0  0  0  0
   -0.3420    5.2390   -2.4100 C   0  0  0  0  0  0  0  0  0  0  0  0
   -0.5620    4.5840   -3.5520 O   0  0  0  0  0  0  0  0  0  0  0  0
    0.8210    5.9840   -2.1960 C   0  0  0  0  0  0  0  0  0  0  0  0
  2  1  1  0  0  0  0
  3  2  1  0  0  0  0
  3  4  1  0  0  0  0
  5  4  2  0  0  0  0
  6  5  1  0  0  0  0
  7  6  1  0  0  0  0
  7  9  1  0  0  0  0
  8  7  2  0  0  0  0
  9 10  2  0  0  0  0
  9 14  1  0  0  0  0
 10 11  1  0  0  0  0
 11 12  2  0  0  0  0
 13 12  1  0  0  0  0
 14 13  2  0  0  0  0
 15 17  1  0  0  0  0
 15  6  2  0  0  0  0
 16 15  1  0  0  0  0
 17  3  2  0  0  0  0
M  END
$$$$
