ox2_esm1_f8_ligand
     RDKit          3D

 29 30  0  0  0  0  0  0  0  0999 V2000
    4.7110   -2.4585   -0.8747 C   0  0  0  0  0  0  0  0  0  0  0  0
    4.2106   -3.6917   -0.3099 O   0  0  0  0  0  0  0  0  0  0  0  0
    2.8749   -3.9622   -0.3712 C   0  0  0  0  0  0  0  0  0  0  0  0
    1.9599   -3.0873   -0.9520 C   0  0  0  0  0  0  0  0  0  0  0  0
    0.6138   -3.4050   -0.9809 C   0  0  0  0  0  0  0  0  0  0  0  0
    0.1673   -4.6007   -0.4470 C   0  0  0  0  0  0  0  0  0  0  0  0
   -1.2832   -4.9630   -0.4803 C   0  0  0  0  0  0  0  0  0  0  0  0
   -1.6904   -5.8711    0.2125 O   0  0  0  0  0  0  0  0  0  0  0  0
   -2.2384   -4.2259   -1.3337 C   0  0  0  0  0  0  0  0  0  0  0  0
   -3.4106   -3.7200   -0.7804 C   0  0  0  0  0  0  0  0  0  0  0  0
   -4.3044   -3.0184   -1.5844 C   0  0  0  0  0  0  0  0  0  0  0  0
   -4.0620   -2.8453   -2.9401 C   0  0  0  0  0  0  0  0  0  0  0  0
   -2.9122   -3.3886   -3.4918 C   0  0  0  0  0  0  0  0  0  0  0  0
   -1.9990   -4.0751   -2.6908 C   0  0  0  0  0  0  0  0  0  0  0  0
    1.0818   -5.4856    0.1417 C   0  0  0  0  0  0  0  0  0  0  0  0
    0.6285   -6.6610    0.6751 O   0  0  0  0  0  0  0  0  0  0  0  0
    2.4345   -5.1485    0.1739 C   0  0  0  0  0  0  0  0  0  0  0  0
    4.6499   -1.6591   -0.1216 H   0  0  0  0  0  0  0  0  0  0  0  0
    5.7586   -2.5942   -1.1813 H   0  0  0  0  0  0  0  0  0  0  0  0
    4.1051   -2.1841   -1.7507 H   0  0  0  0  0  0  0  0  0  0  0  0
    2.3089   -2.1402   -1.3893 H   0  0  0  0  0  0  0  0  0  0  0  0
   -0.1047   -2.7038   -1.4303 H   0  0  0  0  0  0  0  0  0  0  0  0
   -3.6297   -3.8737    0.2865 H   0  0  0  0  0  0  0  0  0  0  0  0
   -5.2165   -2.5947   -1.1386 H   0  0  0  0  0  0  0  0  0  0  0  0
   -4.7715   -2.2856   -3.5672 H   0  0  0  0  0  0  0  0  0  0  0  0
   -2.7182   -3.2777   -4.5689 H   0  0  0  0  0  0  0  0  0  0  0  0
   -1.0868   -4.4977   -3.1372 H   0  0  0  0  0  0  0  0  0  0  0  0
    1.2656   -7.2930    1.0932 H   0  0  0  0  0  0  0  0  0  0  0  0
    3.1567   -5.8360    0.6387 H   0  0  0  0  0  0  0  0  0  0  0  0
  2  1  1  0
  3  2  1  0
  4  3  1  0
  5  4  2  0
  6  5  1  0
  7  6  1  0
  8  7  2  0
  9  7  1  0
 10  9  2  0
 11 10  1  0
 12 11  2  0
 13 12  1  0
 14 13  2  0
 14  9  1  0
 15  6  2  0
 16 15  1  0
 17 15  1  0
 17  3  2  0
  1 18  1  0
  1 19  1  0
  1 20  1  0
  4 21  1  0
  5 22  1  0
 10 23  1  0
 11 24  1  0
 12 25  1  0
 13 26  1  0
 14 27  1  0
 16 28  1  0
 17 29  1  0
M  END
$$$$
