/Users/cafierom/python_mac/peptidebuilder/runs/oxybenzone/folds/dock_stage/openfold3/ox2_esm1_f8_o3cof_ligand.sdf.ligand.pdb
 OpenBabel10092620473D

 17 18  0  0  0  0  0  0  0  0999 V2000
    4.8280   -2.8120   -0.9800 C   0  0  0  0  0  0  0  0  0  0  0  0
    4.1360   -3.4200    0.0730 O   0  0  0  0  0  0  0  0  0  0  0  0
    2.8400   -3.7910   -0.1610 C   0  0  0  0  0  0  0  0  0  0  0  0
    1.9660   -3.0030   -0.8570 C   0  0  0  0  0  0  0  0  0  0  0  0
    0.6480   -3.4180   -1.0540 C   0  0  0  0  0  0  0  0  0  0  0  0
    0.2060   -4.6100   -0.5510 C   0  0  0  0  0  0  0  0  0  0  0  0
   -1.2020   -5.0900   -0.7420 C   0  0  0  0  0  0  0  0  0  0  0  0
   -1.5620   -6.1820   -0.2900 O   0  0  0  0  0  0  0  0  0  0  0  0
   -2.2310   -4.2790   -1.4460 C   0  0  0  0  0  0  0  0  0  0  0  0
   -2.9910   -3.3370   -0.7550 C   0  0  0  0  0  0  0  0  0  0  0  0
   -3.9490   -2.5760   -1.4110 C   0  0  0  0  0  0  0  0  0  0  0  0
   -4.1850   -2.7660   -2.7850 C   0  0  0  0  0  0  0  0  0  0  0  0
   -3.4470   -3.7400   -3.4850 C   0  0  0  0  0  0  0  0  0  0  0  0
   -2.4950   -4.5060   -2.8170 C   0  0  0  0  0  0  0  0  0  0  0  0
    1.1130   -5.4480    0.1860 C   0  0  0  0  0  0  0  0  0  0  0  0
    0.6850   -6.6210    0.6730 O   0  0  0  0  0  0  0  0  0  0  0  0
    2.4220   -5.0090    0.3680 C   0  0  0  0  0  0  0  0  0  0  0  0
  1  2  1  0  0  0  0
  3  2  1  0  0  0  0
  3 17  1  0  0  0  0
  4  3  2  0  0  0  0
  5  4  1  0  0  0  0
  5  6  2  0  0  0  0
  6 15  1  0  0  0  0
  7  6  1  0  0  0  0
  7  8  2  0  0  0  0
  9 10  1  0  0  0  0
  9  7  1  0  0  0  0
 11 10  2  0  0  0  0
 12 11  1  0  0  0  0
 13 14  1  0  0  0  0
 13 12  2  0  0  0  0
 14  9  2  0  0  0  0
 15 17  2  0  0  0  0
 15 16  1  0  0  0  0
M  END
$$$$
