ox2_shuffle_ligand
     RDKit          3D

 29 30  0  0  0  0  0  0  0  0999 V2000
    6.2694   -7.6972    2.3485 C   0  0  0  0  0  0  0  0  0  0  0  0
    5.0436   -8.3459    2.5709 O   0  0  0  0  0  0  0  0  0  0  0  0
    3.9018   -7.8863    1.9642 C   0  0  0  0  0  0  0  0  0  0  0  0
    2.8657   -8.7897    1.7859 C   0  0  0  0  0  0  0  0  0  0  0  0
    1.6918   -8.3984    1.1784 C   0  0  0  0  0  0  0  0  0  0  0  0
    1.5308   -7.0893    0.7432 C   0  0  0  0  0  0  0  0  0  0  0  0
    0.2493   -6.6572    0.0805 C   0  0  0  0  0  0  0  0  0  0  0  0
    0.1362   -5.5200   -0.3176 O   0  0  0  0  0  0  0  0  0  0  0  0
   -0.8714   -7.6096   -0.0655 C   0  0  0  0  0  0  0  0  0  0  0  0
   -0.7877   -8.6686   -0.9619 C   0  0  0  0  0  0  0  0  0  0  0  0
   -1.8545   -9.5446   -1.0959 C   0  0  0  0  0  0  0  0  0  0  0  0
   -3.0027   -9.3691   -0.3266 C   0  0  0  0  0  0  0  0  0  0  0  0
   -3.0930   -8.3022    0.5590 C   0  0  0  0  0  0  0  0  0  0  0  0
   -2.0279   -7.4075    0.6836 C   0  0  0  0  0  0  0  0  0  0  0  0
    2.5723   -6.1684    0.9297 C   0  0  0  0  0  0  0  0  0  0  0  0
    2.4209   -4.8815    0.5092 O   0  0  0  0  0  0  0  0  0  0  0  0
    3.7514   -6.5804    1.5375 C   0  0  0  0  0  0  0  0  0  0  0  0
    7.0904   -8.4235    2.4403 H   0  0  0  0  0  0  0  0  0  0  0  0
    6.2760   -7.2621    1.3383 H   0  0  0  0  0  0  0  0  0  0  0  0
    6.4017   -6.8982    3.0927 H   0  0  0  0  0  0  0  0  0  0  0  0
    2.9811   -9.8274    2.1322 H   0  0  0  0  0  0  0  0  0  0  0  0
    0.8789   -9.1261    1.0377 H   0  0  0  0  0  0  0  0  0  0  0  0
    0.1222   -8.8115   -1.5634 H   0  0  0  0  0  0  0  0  0  0  0  0
   -1.7941  -10.3788   -1.8103 H   0  0  0  0  0  0  0  0  0  0  0  0
   -3.8396  -10.0767   -0.4205 H   0  0  0  0  0  0  0  0  0  0  0  0
   -4.0026   -8.1624    1.1615 H   0  0  0  0  0  0  0  0  0  0  0  0
   -2.1018   -6.5498    1.3682 H   0  0  0  0  0  0  0  0  0  0  0  0
    3.1538   -4.2288    0.6391 H   0  0  0  0  0  0  0  0  0  0  0  0
    4.5719   -5.8617    1.6804 H   0  0  0  0  0  0  0  0  0  0  0  0
  2  1  1  0
  3  2  1  0
  4  3  1  0
  5  4  2  0
  6  5  1  0
  7  6  1  0
  8  7  2  0
  9  7  1  0
 10  9  2  0
 11 10  1  0
 12 11  2  0
 13 12  1  0
 14 13  2  0
 14  9  1  0
 15  6  2  0
 16 15  1  0
 17  3  2  0
 17 15  1  0
  1 18  1  0
  1 19  1  0
  1 20  1  0
  4 21  1  0
  5 22  1  0
 10 23  1  0
 11 24  1  0
 12 25  1  0
 13 26  1  0
 14 27  1  0
 16 28  1  0
 17 29  1  0
M  END
$$$$
