/Users/cafierom/python_mac/peptidebuilder/runs/oxybenzone/folds/dock_stage/openfold3/ox2_shuffle_o3cof_ligand.sdf.ligand.pdb
 OpenBabel10092620493D

 17 18  0  0  0  0  0  0  0  0999 V2000
    5.6360   -8.6750    3.1460 C   0  0  0  0  0  0  0  0  0  0  0  0
    5.3890   -7.9390    1.9770 O   0  0  0  0  0  0  0  0  0  0  0  0
    4.0790   -7.6620    1.6660 C   0  0  0  0  0  0  0  0  0  0  0  0
    3.0520   -8.2830    2.2920 C   0  0  0  0  0  0  0  0  0  0  0  0
    1.7590   -7.9540    1.9650 C   0  0  0  0  0  0  0  0  0  0  0  0
    1.4880   -7.0330    0.9940 C   0  0  0  0  0  0  0  0  0  0  0  0
    0.1000   -6.6320    0.6950 C   0  0  0  0  0  0  0  0  0  0  0  0
   -0.2730   -5.4610    0.8910 O   0  0  0  0  0  0  0  0  0  0  0  0
   -0.8960   -7.5930    0.1710 C   0  0  0  0  0  0  0  0  0  0  0  0
   -2.1800   -7.5840    0.7080 C   0  0  0  0  0  0  0  0  0  0  0  0
   -3.1200   -8.4770    0.2300 C   0  0  0  0  0  0  0  0  0  0  0  0
   -2.7970   -9.3410   -0.8150 C   0  0  0  0  0  0  0  0  0  0  0  0
   -1.5290   -9.3180   -1.3540 C   0  0  0  0  0  0  0  0  0  0  0  0
   -0.5850   -8.4320   -0.8750 C   0  0  0  0  0  0  0  0  0  0  0  0
    2.5510   -6.3620    0.3340 C   0  0  0  0  0  0  0  0  0  0  0  0
    2.2690   -5.4530   -0.5800 O   0  0  0  0  0  0  0  0  0  0  0  0
    3.8530   -6.7170    0.6780 C   0  0  0  0  0  0  0  0  0  0  0  0
  2  1  1  0  0  0  0
  3  2  1  0  0  0  0
  3  4  1  0  0  0  0
  5  4  2  0  0  0  0
  6  5  1  0  0  0  0
  7  8  2  0  0  0  0
  7  6  1  0  0  0  0
  9  7  1  0  0  0  0
  9 10  1  0  0  0  0
 11 10  2  0  0  0  0
 12 11  1  0  0  0  0
 13 14  1  0  0  0  0
 13 12  2  0  0  0  0
 14  9  2  0  0  0  0
 15 17  1  0  0  0  0
 15  6  2  0  0  0  0
 16 15  1  0  0  0  0
 17  3  2  0  0  0  0
M  END
$$$$
