/Users/cafierom/python_mac/peptidebuilder/runs/oxybenzone/folds/dock_stage/openfold3/ox3_orig_f8_o3cof_ligand.sdf.ligand.pdb
 OpenBabel10092620503D

 17 18  0  0  0  0  0  0  0  0999 V2000
   -2.7420    1.1970  -12.3970 C   0  0  0  0  0  0  0  0  0  0  0  0
   -3.8850    0.4620  -11.9740 O   0  0  0  0  0  0  0  0  0  0  0  0
   -3.9490    0.2210  -10.6280 C   0  0  0  0  0  0  0  0  0  0  0  0
   -5.0940    0.5470   -9.9740 C   0  0  0  0  0  0  0  0  0  0  0  0
   -5.1900    0.3170   -8.6140 C   0  0  0  0  0  0  0  0  0  0  0  0
   -4.1630   -0.2400   -7.9210 C   0  0  0  0  0  0  0  0  0  0  0  0
   -4.2100   -0.4820   -6.4580 C   0  0  0  0  0  0  0  0  0  0  0  0
   -3.2490   -1.0340   -5.8950 O   0  0  0  0  0  0  0  0  0  0  0  0
   -5.3320   -0.0610   -5.5970 C   0  0  0  0  0  0  0  0  0  0  0  0
   -6.2660   -1.0040   -5.1720 C   0  0  0  0  0  0  0  0  0  0  0  0
   -7.3090   -0.6100   -4.3550 C   0  0  0  0  0  0  0  0  0  0  0  0
   -7.4000    0.7210   -3.9130 C   0  0  0  0  0  0  0  0  0  0  0  0
   -6.4340    1.6360   -4.3120 C   0  0  0  0  0  0  0  0  0  0  0  0
   -5.3950    1.2480   -5.1320 C   0  0  0  0  0  0  0  0  0  0  0  0
   -2.9640   -0.5980   -8.6200 C   0  0  0  0  0  0  0  0  0  0  0  0
   -1.9630   -1.1480   -7.9320 O   0  0  0  0  0  0  0  0  0  0  0  0
   -2.8880   -0.3510   -9.9770 C   0  0  0  0  0  0  0  0  0  0  0  0
  1  2  1  0  0  0  0
  2  3  1  0  0  0  0
  3 17  2  0  0  0  0
  3  4  1  0  0  0  0
  4  5  2  0  0  0  0
  5  6  1  0  0  0  0
  6  7  1  0  0  0  0
  7  8  2  0  0  0  0
  7  9  1  0  0  0  0
  9 10  2  0  0  0  0
  9 14  1  0  0  0  0
 10 11  1  0  0  0  0
 11 12  2  0  0  0  0
 13 12  1  0  0  0  0
 14 13  2  0  0  0  0
 15 16  1  0  0  0  0
 15  6  2  0  0  0  0
 17 15  1  0  0  0  0
M  END
$$$$
