ox2_esm1_f8_dockpose3
     RDKit          3D

 17 18  0  0  0  0  0  0  0  0999 V2000
   -9.8850    7.6240    4.2590 C   0  0  0  0  0  0  0  0  0  0  0  0
   -9.4160    6.7010    5.2690 O   0  0  0  0  0  0  0  0  0  0  0  0
   -8.3870    5.8540    4.9760 C   0  0  0  0  0  0  0  0  0  0  0  0
   -7.3440    5.6080    5.8650 C   0  0  0  0  0  0  0  0  0  0  0  0
   -6.3190    4.7470    5.5160 C   0  0  0  0  0  0  0  0  0  0  0  0
   -6.3310    4.1110    4.2870 C   0  0  0  0  0  0  0  0  0  0  0  0
   -5.2360    3.1690    3.9000 C   0  0  0  0  0  0  0  0  0  0  0  0
   -4.3550    3.5460    3.1570 O   0  0  0  0  0  0  0  0  0  0  0  0
   -5.1970    1.7840    4.4160 C   0  0  0  0  0  0  0  0  0  0  0  0
   -4.0020    1.2620    4.9020 C   0  0  0  0  0  0  0  0  0  0  0  0
   -3.9700   -0.0390    5.3960 C   0  0  0  0  0  0  0  0  0  0  0  0
   -5.1050   -0.8380    5.3800 C   0  0  0  0  0  0  0  0  0  0  0  0
   -6.2810   -0.3240    4.8560 C   0  0  0  0  0  0  0  0  0  0  0  0
   -6.3300    0.9860    4.3780 C   0  0  0  0  0  0  0  0  0  0  0  0
   -7.3760    4.3550    3.3860 C   0  0  0  0  0  0  0  0  0  0  0  0
   -7.3730    3.7280    2.1700 O   0  0  0  0  0  0  0  0  0  0  0  0
   -8.3970    5.2340    3.7460 C   0  0  0  0  0  0  0  0  0  0  0  0
  2  1  1  0
  3  2  1  0
  4  3  1  0
  5  4  2  0
  6  5  1  0
  7  6  1  0
  8  7  2  0
  9  7  1  0
 10  9  2  0
 11 10  1  0
 12 11  2  0
 13 12  1  0
 14 13  2  0
 14  9  1  0
 15  6  2  0
 16 15  1  0
 17 15  1  0
 17  3  2  0
M  END
$$$$
