bg33_3_ligand
     RDKit          3D

 44 44  0  0  0  0  0  0  0  0999 V2000
    3.1410    5.1760   -7.2480 C   0  0  1  0  0  0  0  0  0  0  0  0
    4.4140    4.3080   -7.1460 C   0  0  1  0  0  0  0  0  0  0  0  0
    4.1670    3.2130   -6.1580 C   0  0  1  0  0  0  0  0  0  0  0  0
    5.4690    2.5560   -5.6490 C   0  0  1  0  0  0  0  0  0  0  0  0
    5.1070    1.6830   -4.4610 C   0  0  1  0  0  0  0  0  0  0  0  0
    4.9770    0.2940   -4.8810 C   0  0  1  0  0  0  0  0  0  0  0  0
    6.1310   -0.5670   -4.4630 C   0  0  1  0  0  0  0  0  0  0  0  0
    6.1380    1.7610   -3.4260 O   0  0  0  0  0  0  0  0  0  0  0  0
    6.0420    2.6940   -2.5780 C   0  0  0  0  0  0  0  0  0  0  0  0
    5.3260    3.6270   -2.8590 O   0  0  0  0  0  0  0  0  0  0  0  0
    6.8480    2.6480   -1.2370 C   0  0  0  0  0  0  0  0  0  0  0  0
    6.2770    2.0730   -0.1540 C   0  0  0  0  0  0  0  0  0  0  0  0
    6.9120    2.0780    1.1390 C   0  0  0  0  0  0  0  0  0  0  0  0
    7.0370    3.2390    1.8690 C   0  0  0  0  0  0  0  0  0  0  0  0
    7.5810    3.2610    3.1020 C   0  0  0  0  0  0  0  0  0  0  0  0
    8.0280    2.0750    3.6380 C   0  0  0  0  0  0  0  0  0  0  0  0
    8.6200    2.0160    4.8500 O   0  0  0  0  0  0  0  0  0  0  0  0
    8.3110    3.0760    5.7380 C   0  0  1  0  0  0  0  0  0  0  0  0
    7.9530    0.9150    2.9310 C   0  0  0  0  0  0  0  0  0  0  0  0
    7.3830    0.9180    1.6760 C   0  0  0  0  0  0  0  0  0  0  0  0
    2.7821    5.4207   -6.2374 H   0  0  0  0  0  0  0  0  0  0  0  0
    3.3730    6.1049   -7.7896 H   0  0  0  0  0  0  0  0  0  0  0  0
    2.3610    4.6208   -7.7896 H   0  0  0  0  0  0  0  0  0  0  0  0
    4.6464    3.8741   -8.1297 H   0  0  0  0  0  0  0  0  0  0  0  0
    5.2641    4.9247   -6.8187 H   0  0  0  0  0  0  0  0  0  0  0  0
    3.6261    3.6328   -5.2971 H   0  0  0  0  0  0  0  0  0  0  0  0
    3.5826    2.4337   -6.6690 H   0  0  0  0  0  0  0  0  0  0  0  0
    5.9150    1.9411   -6.4446 H   0  0  0  0  0  0  0  0  0  0  0  0
    6.2008    3.3234   -5.3565 H   0  0  0  0  0  0  0  0  0  0  0  0
    4.1517    2.0466   -4.0545 H   0  0  0  0  0  0  0  0  0  0  0  0
    4.0573   -0.1184   -4.4406 H   0  0  0  0  0  0  0  0  0  0  0  0
    4.9511    0.2893   -5.9807 H   0  0  0  0  0  0  0  0  0  0  0  0
    6.1815   -0.6047   -3.3648 H   0  0  0  0  0  0  0  0  0  0  0  0
    5.9920   -1.5839   -4.8588 H   0  0  0  0  0  0  0  0  0  0  0  0
    7.0662   -0.1442   -4.8588 H   0  0  0  0  0  0  0  0  0  0  0  0
    7.8598    3.0753   -1.1765 H   0  0  0  0  0  0  0  0  0  0  0  0
    5.2968    1.5862   -0.2641 H   0  0  0  0  0  0  0  0  0  0  0  0
    6.6800    4.1823    1.4300 H   0  0  0  0  0  0  0  0  0  0  0  0
    7.6654    4.2022    3.6650 H   0  0  0  0  0  0  0  0  0  0  0  0
    8.4129    2.7263    6.7759 H   0  0  0  0  0  0  0  0  0  0  0  0
    9.0023    3.9137    5.5637 H   0  0  0  0  0  0  0  0  0  0  0  0
    7.2778    3.4109    5.5637 H   0  0  0  0  0  0  0  0  0  0  0  0
    8.3449   -0.0197    3.3584 H   0  0  0  0  0  0  0  0  0  0  0  0
    7.3082   -0.0198    1.1059 H   0  0  0  0  0  0  0  0  0  0  0  0
  2  1  1  0
  3  2  1  0
  4  3  1  0
  5  4  1  0
  6  5  1  0
  7  6  1  0
  8  5  1  0
  9  8  1  0
 10  9  2  0
 11  9  1  0
 12 11  2  3
 13 12  1  0
 14 13  1  0
 15 14  2  0
 16 15  1  0
 17 16  1  0
 18 17  1  0
 19 16  2  0
 20 19  1  0
 20 13  2  0
  1 21  1  1
  1 22  1  0
  1 23  1  0
  2 24  1  6
  2 25  1  0
  3 26  1  1
  3 27  1  0
  4 28  1  6
  4 29  1  0
  5 30  1  1
  6 31  1  1
  6 32  1  0
  7 33  1  1
  7 34  1  0
  7 35  1  0
 11 36  1  0
 12 37  1  0
 14 38  1  0
 15 39  1  0
 18 40  1  1
 18 41  1  0
 18 42  1  0
 19 43  1  0
 20 44  1  0
M  END
