s2_esm2_control_ligand
     RDKit          3D

 44 44  0  0  0  0  0  0  0  0999 V2000
   -5.8712   10.2929   10.7895 C   0  0  0  0  0  0  0  0  0  0  0  0
   -6.3293   10.7764    9.4182 C   0  0  0  0  0  0  0  0  0  0  0  0
   -5.1980   10.7596    8.4334 C   0  0  0  0  0  0  0  0  0  0  0  0
   -5.6436   11.1436    7.0567 C   0  0  0  0  0  0  0  0  0  0  0  0
   -4.5250   11.2062    6.0452 C   0  0  2  0  0  0  0  0  0  0  0  0
   -5.1034   11.3889    4.6438 C   0  0  0  0  0  0  0  0  0  0  0  0
   -4.6197   12.6376    3.9274 C   0  0  0  0  0  0  0  0  0  0  0  0
   -3.7877    9.9963    6.0734 O   0  0  0  0  0  0  0  0  0  0  0  0
   -2.5037   10.0121    6.4863 C   0  0  0  0  0  0  0  0  0  0  0  0
   -1.9654   11.0421    6.7938 O   0  0  0  0  0  0  0  0  0  0  0  0
   -1.8359    8.6870    6.5499 C   0  0  0  0  0  0  0  0  0  0  0  0
   -0.5497    8.6285    6.9965 C   0  0  0  0  0  0  0  0  0  0  0  0
    0.2052    7.3687    7.1460 C   0  0  0  0  0  0  0  0  0  0  0  0
    1.5206    7.4425    7.5666 C   0  0  0  0  0  0  0  0  0  0  0  0
    2.2717    6.2947    7.7397 C   0  0  0  0  0  0  0  0  0  0  0  0
    1.7235    5.0624    7.4964 C   0  0  0  0  0  0  0  0  0  0  0  0
    2.5003    3.9699    7.6850 O   0  0  0  0  0  0  0  0  0  0  0  0
    1.9437    2.6701    7.5364 C   0  0  0  0  0  0  0  0  0  0  0  0
    0.4135    4.9838    7.0801 C   0  0  0  0  0  0  0  0  0  0  0  0
   -0.3406    6.1373    6.9045 C   0  0  0  0  0  0  0  0  0  0  0  0
   -6.5675   10.6584   11.5587 H   0  0  0  0  0  0  0  0  0  0  0  0
   -5.8537    9.1931   10.8037 H   0  0  0  0  0  0  0  0  0  0  0  0
   -4.8618   10.6783   10.9958 H   0  0  0  0  0  0  0  0  0  0  0  0
   -7.1317   10.1177    9.0546 H   0  0  0  0  0  0  0  0  0  0  0  0
   -6.6919   11.8103    9.5157 H   0  0  0  0  0  0  0  0  0  0  0  0
   -4.4266   11.4690    8.7674 H   0  0  0  0  0  0  0  0  0  0  0  0
   -4.8040    9.7335    8.3880 H   0  0  0  0  0  0  0  0  0  0  0  0
   -6.3805   10.4031    6.7122 H   0  0  0  0  0  0  0  0  0  0  0  0
   -6.0645   12.1573    7.1291 H   0  0  0  0  0  0  0  0  0  0  0  0
   -3.8695   12.0539    6.2942 H   0  0  0  0  0  0  0  0  0  0  0  0
   -4.8236   10.5140    4.0386 H   0  0  0  0  0  0  0  0  0  0  0  0
   -6.1918   11.4950    4.7629 H   0  0  0  0  0  0  0  0  0  0  0  0
   -5.3717   13.4338    4.0300 H   0  0  0  0  0  0  0  0  0  0  0  0
   -3.6701   12.9707    4.3718 H   0  0  0  0  0  0  0  0  0  0  0  0
   -4.4669   12.4129    2.8614 H   0  0  0  0  0  0  0  0  0  0  0  0
   -2.3672    7.7739    6.2435 H   0  0  0  0  0  0  0  0  0  0  0  0
   -0.0470    9.5709    7.2596 H   0  0  0  0  0  0  0  0  0  0  0  0
    1.9742    8.4246    7.7657 H   0  0  0  0  0  0  0  0  0  0  0  0
    3.3164    6.3712    8.0750 H   0  0  0  0  0  0  0  0  0  0  0  0
    0.8623    2.7096    7.7337 H   0  0  0  0  0  0  0  0  0  0  0  0
    2.1164    2.3123    6.5106 H   0  0  0  0  0  0  0  0  0  0  0  0
    2.4217    1.9827    8.2498 H   0  0  0  0  0  0  0  0  0  0  0  0
   -0.0392    4.0004    6.8851 H   0  0  0  0  0  0  0  0  0  0  0  0
   -1.3852    6.0601    6.5685 H   0  0  0  0  0  0  0  0  0  0  0  0
  2  1  1  0
  3  2  1  0
  4  3  1  0
  5  4  1  0
  6  5  1  0
  7  6  1  0
  8  5  1  0
  9  8  1  0
 10  9  2  0
 11  9  1  0
 12 11  2  3
 13 12  1  0
 14 13  1  0
 15 14  2  0
 16 15  1  0
 17 16  1  0
 18 17  1  0
 19 16  2  0
 20 19  1  0
 20 13  2  0
  1 21  1  0
  1 22  1  0
  1 23  1  0
  2 24  1  0
  2 25  1  0
  3 26  1  0
  3 27  1  0
  4 28  1  0
  4 29  1  0
  5 30  1  1
  6 31  1  0
  6 32  1  0
  7 33  1  0
  7 34  1  0
  7 35  1  0
 11 36  1  0
 12 37  1  0
 14 38  1  0
 15 39  1  0
 18 40  1  0
 18 41  1  0
 18 42  1  0
 19 43  1  0
 20 44  1  0
M  END
$$$$
