s2_esm2_control_ligand
 OpenBabel10092621043D

 20 20  0  0  1  0  0  0  0  0999 V2000
   -7.2840    8.8860    5.4900 C   0  0  0  0  0  0  0  0  0  0  0  0
   -7.6810    9.1060    6.6030 O   0  0  0  0  0  0  0  0  0  0  0  0
   -5.8450    8.7760    5.1400 C   0  0  0  0  0  3  0  0  0  0  0  0
   -5.0310    9.8390    5.3950 C   0  0  0  0  0  3  0  0  0  0  0  0
   -3.5780    9.8360    5.1320 C   0  0  0  0  0  0  0  0  0  0  0  0
   -3.1000   10.6210    4.0980 C   0  0  0  0  0  3  0  0  0  0  0  0
   -1.7480   10.6700    3.8160 C   0  0  0  0  0  3  0  0  0  0  0  0
   -0.8560    9.9390    4.5580 C   0  0  0  0  0  0  0  0  0  0  0  0
   -1.3280    9.1590    5.5910 C   0  0  0  0  0  3  0  0  0  0  0  0
   -2.6860    9.1070    5.8730 C   0  0  0  0  0  3  0  0  0  0  0  0
    0.4570   10.0260    4.2440 O   0  0  0  0  0  0  0  0  0  0  0  0
    0.9120    9.5930    2.9680 C   0  0  0  0  0  1  0  0  0  0  0  0
   -8.1460    8.7000    4.4690 O   0  0  0  0  0  0  0  0  0  0  0  0
   -7.7480    7.9170    3.3560 C   0  0  1  0  0  3  0  0  0  0  0  0
   -8.3820    6.5350    3.4850 C   0  0  0  0  0  2  0  0  0  0  0  0
   -7.8940    5.5250    2.4600 C   0  0  0  0  0  1  0  0  0  0  0  0
   -8.2100    8.5760    2.0790 C   0  0  0  0  0  2  0  0  0  0  0  0
   -7.0970    8.9560    1.1540 C   0  0  0  0  0  2  0  0  0  0  0  0
   -5.2030   10.5490    0.8340 C   0  0  0  0  0  1  0  0  0  0  0  0
   -6.0450    9.7730    1.8420 C   0  0  0  0  0  2  0  0  0  0  0  0
  1  2  2  0  0  0  0
  3  4  2  0  0  0  0
  3  1  1  0  0  0  0
  5  4  1  0  0  0  0
  5 10  1  0  0  0  0
  6  5  2  0  0  0  0
  7  6  1  0  0  0  0
  7  8  2  0  0  0  0
  8  9  1  0  0  0  0
  9 10  2  0  0  0  0
 11  8  1  0  0  0  0
 12 11  1  0  0  0  0
 13  1  1  0  0  0  0
 14 17  1  6  0  0  0
 14 15  1  0  0  0  0
 14 13  1  0  0  0  0
 16 15  1  0  0  0  0
 18 20  1  0  0  0  0
 18 17  1  0  0  0  0
 19 20  1  0  0  0  0
M  END
>  <MODEL>
1

>  <REMARK>
 VINA RESULT:      -4.4      0.000      0.000
  Name = s2_esm2_control_ligand
  12 active torsions:
  status: ('A' for Active; 'I' for Inactive)
    1  A    between atoms: C_1  and  C_2
    2  A    between atoms: C_2  and  C_3
    3  A    between atoms: C_3  and  C_4
    4  A    between atoms: C_4  and  C_5
    5  A    between atoms: C_5  and  C_6
    6  A    between atoms: C_5  and  O_8
    7  A    between atoms: C_6  and  C_7
    8  A    between atoms: O_8  and  C_9
    9  A    between atoms: C_9  and  C_11
   10  A    between atoms: C_12  and  C_13
   11  A    between atoms: C_16  and  O_17
   12  A    between atoms: O_17  and  C_18
                            x       y       z     vdW  Elec       q    Type
                         _______ _______ _______ _____ _____    ______ ____

>  <TORSDO>
F 9

$$$$
s2_esm2_control_ligand
 OpenBabel10092621043D

 20 20  0  0  1  0  0  0  0  0999 V2000
   -6.8100    9.3140    5.3390 C   0  0  0  0  0  0  0  0  0  0  0  0
   -7.5150    9.5500    6.2850 O   0  0  0  0  0  0  0  0  0  0  0  0
   -6.8500    8.0340    4.5870 C   0  0  0  0  0  3  0  0  0  0  0  0
   -7.8620    7.8350    3.6970 C   0  0  0  0  0  3  0  0  0  0  0  0
   -7.9860    6.6240    2.8610 C   0  0  0  0  0  0  0  0  0  0  0  0
   -7.9670    5.3920    3.4890 C   0  0  0  0  0  3  0  0  0  0  0  0
   -8.0950    4.2250    2.7590 C   0  0  0  0  0  3  0  0  0  0  0  0
   -8.2430    4.2700    1.3970 C   0  0  0  0  0  0  0  0  0  0  0  0
   -8.2660    5.4950    0.7670 C   0  0  0  0  0  3  0  0  0  0  0  0
   -8.1350    6.6670    1.5000 C   0  0  0  0  0  3  0  0  0  0  0  0
   -8.3690    3.1000    0.7300 O   0  0  0  0  0  0  0  0  0  0  0  0
   -7.5720    1.9820    1.1010 C   0  0  0  0  0  1  0  0  0  0  0  0
   -5.9330   10.2310    4.8800 O   0  0  0  0  0  0  0  0  0  0  0  0
   -4.7260    9.7980    4.2760 C   0  0  1  0  0  3  0  0  0  0  0  0
   -4.5510   10.5420    2.9550 C   0  0  0  0  0  2  0  0  0  0  0  0
   -5.4640   10.0610    1.8410 C   0  0  0  0  0  1  0  0  0  0  0  0
   -3.5630   10.0970    5.1920 C   0  0  0  0  0  2  0  0  0  0  0  0
   -2.9240    8.8790    5.7810 C   0  0  0  0  0  2  0  0  0  0  0  0
   -0.5640    9.2690    5.0720 C   0  0  0  0  0  1  0  0  0  0  0  0
   -1.5250    9.1450    6.2490 C   0  0  0  0  0  2  0  0  0  0  0  0
  1  2  2  0  0  0  0
  3  1  1  0  0  0  0
  4  3  2  0  0  0  0
  5  6  1  0  0  0  0
  5  4  1  0  0  0  0
  7  6  2  0  0  0  0
  8  7  1  0  0  0  0
  9  8  2  0  0  0  0
  9 10  1  0  0  0  0
 10  5  2  0  0  0  0
 11 12  1  0  0  0  0
 11  8  1  0  0  0  0
 13  1  1  0  0  0  0
 14 15  1  6  0  0  0
 14 13  1  0  0  0  0
 14 17  1  0  0  0  0
 16 15  1  0  0  0  0
 17 18  1  0  0  0  0
 18 20  1  0  0  0  0
 19 20  1  0  0  0  0
M  END
>  <MODEL>
2

>  <REMARK>
 VINA RESULT:      -4.3      2.098      6.809
  Name = s2_esm2_control_ligand
  12 active torsions:
  status: ('A' for Active; 'I' for Inactive)
    1  A    between atoms: C_1  and  C_2
    2  A    between atoms: C_2  and  C_3
    3  A    between atoms: C_3  and  C_4
    4  A    between atoms: C_4  and  C_5
    5  A    between atoms: C_5  and  C_6
    6  A    between atoms: C_5  and  O_8
    7  A    between atoms: C_6  and  C_7
    8  A    between atoms: O_8  and  C_9
    9  A    between atoms: C_9  and  C_11
   10  A    between atoms: C_12  and  C_13
   11  A    between atoms: C_16  and  O_17
   12  A    between atoms: O_17  and  C_18
                            x       y       z     vdW  Elec       q    Type
                         _______ _______ _______ _____ _____    ______ ____

>  <TORSDO>
F 9

$$$$
s2_esm2_control_ligand
 OpenBabel10092621043D

 20 20  0  0  1  0  0  0  0  0999 V2000
   -9.6670    7.2770    4.4450 C   0  0  0  0  0  0  0  0  0  0  0  0
  -10.7120    7.6420    4.9140 O   0  0  0  0  0  0  0  0  0  0  0  0
   -8.3620    7.9150    4.7550 C   0  0  0  0  0  3  0  0  0  0  0  0
   -7.5620    8.2930    3.7180 C   0  0  0  0  0  3  0  0  0  0  0  0
   -6.2640    8.9750    3.8970 C   0  0  0  0  0  0  0  0  0  0  0  0
   -5.7370    9.6670    2.8210 C   0  0  0  0  0  3  0  0  0  0  0  0
   -4.5340   10.3380    2.9340 C   0  0  0  0  0  3  0  0  0  0  0  0
   -3.8410   10.3280    4.1170 C   0  0  0  0  0  0  0  0  0  0  0  0
   -4.3640    9.6430    5.1920 C   0  0  0  0  0  3  0  0  0  0  0  0
   -5.5720    8.9670    5.0780 C   0  0  0  0  0  3  0  0  0  0  0  0
   -2.6710   11.0040    4.1770 O   0  0  0  0  0  0  0  0  0  0  0  0
   -1.8780   10.9470    5.3550 C   0  0  0  0  0  1  0  0  0  0  0  0
   -9.6130    6.2230    3.6040 O   0  0  0  0  0  0  0  0  0  0  0  0
   -9.3190    4.9360    4.1190 C   0  0  1  0  0  3  0  0  0  0  0  0
  -10.4800    4.0040    3.7850 C   0  0  0  0  0  2  0  0  0  0  0  0
  -10.6180    2.8170    4.7230 C   0  0  0  0  0  1  0  0  0  0  0  0
   -8.0470    4.4160    3.4930 C   0  0  0  0  0  2  0  0  0  0  0  0
   -7.7580    4.9870    2.1410 C   0  0  0  0  0  2  0  0  0  0  0  0
   -6.8010    2.7100    1.7900 C   0  0  0  0  0  1  0  0  0  0  0  0
   -7.4510    3.9220    1.1310 C   0  0  0  0  0  2  0  0  0  0  0  0
  1  3  1  0  0  0  0
  1  2  2  0  0  0  0
  4  5  1  0  0  0  0
  4  3  2  0  0  0  0
  5 10  1  0  0  0  0
  6  7  1  0  0  0  0
  6  5  2  0  0  0  0
  7  8  2  0  0  0  0
  8 11  1  0  0  0  0
  8  9  1  0  0  0  0
 10  9  2  0  0  0  0
 11 12  1  0  0  0  0
 13 14  1  0  0  0  0
 13  1  1  0  0  0  0
 14 17  1  6  0  0  0
 15 14  1  0  0  0  0
 15 16  1  0  0  0  0
 18 17  1  0  0  0  0
 20 19  1  0  0  0  0
 20 18  1  0  0  0  0
M  END
>  <MODEL>
3

>  <REMARK>
 VINA RESULT:      -4.3      2.177      3.961
  Name = s2_esm2_control_ligand
  12 active torsions:
  status: ('A' for Active; 'I' for Inactive)
    1  A    between atoms: C_1  and  C_2
    2  A    between atoms: C_2  and  C_3
    3  A    between atoms: C_3  and  C_4
    4  A    between atoms: C_4  and  C_5
    5  A    between atoms: C_5  and  C_6
    6  A    between atoms: C_5  and  O_8
    7  A    between atoms: C_6  and  C_7
    8  A    between atoms: O_8  and  C_9
    9  A    between atoms: C_9  and  C_11
   10  A    between atoms: C_12  and  C_13
   11  A    between atoms: C_16  and  O_17
   12  A    between atoms: O_17  and  C_18
                            x       y       z     vdW  Elec       q    Type
                         _______ _______ _______ _____ _____    ______ ____

>  <TORSDO>
F 9

$$$$
s2_esm2_control_ligand
 OpenBabel10092621043D

 20 20  0  0  1  0  0  0  0  0999 V2000
   -8.5990    7.6930    4.4290 C   0  0  0  0  0  0  0  0  0  0  0  0
   -9.5590    8.4180    4.4370 O   0  0  0  0  0  0  0  0  0  0  0  0
   -7.2180    8.1620    4.7070 C   0  0  0  0  0  3  0  0  0  0  0  0
   -6.6130    8.9770    3.7980 C   0  0  0  0  0  3  0  0  0  0  0  0
   -5.2610    9.5420    3.9820 C   0  0  0  0  0  0  0  0  0  0  0  0
   -4.5900    9.2590    5.1580 C   0  0  0  0  0  3  0  0  0  0  0  0
   -3.3160    9.7460    5.3780 C   0  0  0  0  0  3  0  0  0  0  0  0
   -2.6940   10.5210    4.4320 C   0  0  0  0  0  0  0  0  0  0  0  0
   -3.3570   10.8020    3.2580 C   0  0  0  0  0  3  0  0  0  0  0  0
   -4.6390   10.3140    3.0380 C   0  0  0  0  0  3  0  0  0  0  0  0
   -1.4450   10.9690    4.6950 O   0  0  0  0  0  0  0  0  0  0  0  0
   -0.7810   10.5640    5.8850 C   0  0  0  0  0  1  0  0  0  0  0  0
   -8.7270    6.3730    4.1820 O   0  0  0  0  0  0  0  0  0  0  0  0
   -8.0860    5.8130    3.0490 C   0  0  1  0  0  3  0  0  0  0  0  0
   -8.0630    4.2950    3.2070 C   0  0  0  0  0  2  0  0  0  0  0  0
   -7.3070    3.5640    2.1110 C   0  0  0  0  0  1  0  0  0  0  0  0
   -8.8440    6.1870    1.7980 C   0  0  0  0  0  2  0  0  0  0  0  0
   -8.0100    6.8800    0.7660 C   0  0  0  0  0  2  0  0  0  0  0  0
   -7.1230    9.1190    0.1160 C   0  0  0  0  0  1  0  0  0  0  0  0
   -8.3040    8.3490    0.6970 C   0  0  0  0  0  2  0  0  0  0  0  0
  1  2  2  0  0  0  0
  1  3  1  0  0  0  0
  4  5  1  0  0  0  0
  4  3  2  0  0  0  0
  5  6  1  0  0  0  0
  6  7  2  0  0  0  0
  8 11  1  0  0  0  0
  8  7  1  0  0  0  0
  9  8  2  0  0  0  0
 10  9  1  0  0  0  0
 10  5  2  0  0  0  0
 11 12  1  0  0  0  0
 13  1  1  0  0  0  0
 14 17  1  6  0  0  0
 14 15  1  0  0  0  0
 14 13  1  0  0  0  0
 16 15  1  0  0  0  0
 18 17  1  0  0  0  0
 19 20  1  0  0  0  0
 20 18  1  0  0  0  0
M  END
>  <MODEL>
4

>  <REMARK>
 VINA RESULT:      -4.2      1.641      2.539
  Name = s2_esm2_control_ligand
  12 active torsions:
  status: ('A' for Active; 'I' for Inactive)
    1  A    between atoms: C_1  and  C_2
    2  A    between atoms: C_2  and  C_3
    3  A    between atoms: C_3  and  C_4
    4  A    between atoms: C_4  and  C_5
    5  A    between atoms: C_5  and  C_6
    6  A    between atoms: C_5  and  O_8
    7  A    between atoms: C_6  and  C_7
    8  A    between atoms: O_8  and  C_9
    9  A    between atoms: C_9  and  C_11
   10  A    between atoms: C_12  and  C_13
   11  A    between atoms: C_16  and  O_17
   12  A    between atoms: O_17  and  C_18
                            x       y       z     vdW  Elec       q    Type
                         _______ _______ _______ _____ _____    ______ ____

>  <TORSDO>
F 9

$$$$
s2_esm2_control_ligand
 OpenBabel10092621043D

 20 20  0  0  1  0  0  0  0  0999 V2000
   -7.2210    8.7810    5.1570 C   0  0  0  0  0  0  0  0  0  0  0  0
   -8.0920    8.2960    4.4860 O   0  0  0  0  0  0  0  0  0  0  0  0
   -5.8390    9.0130    4.6630 C   0  0  0  0  0  3  0  0  0  0  0  0
   -4.8800    9.3720    5.5620 C   0  0  0  0  0  3  0  0  0  0  0  0
   -3.4650    9.5880    5.2010 C   0  0  0  0  0  0  0  0  0  0  0  0
   -3.1800   10.4680    4.1720 C   0  0  0  0  0  3  0  0  0  0  0  0
   -1.8730   10.7220    3.8020 C   0  0  0  0  0  3  0  0  0  0  0  0
   -0.8350   10.1040    4.4490 C   0  0  0  0  0  0  0  0  0  0  0  0
   -1.1130    9.2300    5.4760 C   0  0  0  0  0  3  0  0  0  0  0  0
   -2.4260    8.9730    5.8470 C   0  0  0  0  0  3  0  0  0  0  0  0
    0.4260   10.3910    4.0510 O   0  0  0  0  0  0  0  0  0  0  0  0
    0.9810    9.7300    2.9210 C   0  0  0  0  0  1  0  0  0  0  0  0
   -7.4580    9.1750    6.4250 O   0  0  0  0  0  0  0  0  0  0  0  0
   -8.3980   10.2060    6.6690 C   0  0  1  0  0  3  0  0  0  0  0  0
   -8.6490   10.2880    8.1730 C   0  0  0  0  0  2  0  0  0  0  0  0
  -10.1100   10.4540    8.5550 C   0  0  0  0  0  1  0  0  0  0  0  0
   -7.8520   11.5220    6.1690 C   0  0  0  0  0  2  0  0  0  0  0  0
   -6.9590   12.2200    7.1460 C   0  0  0  0  0  2  0  0  0  0  0  0
   -5.8870   12.9300    5.0070 C   0  0  0  0  0  1  0  0  0  0  0  0
   -5.6950   12.7110    6.5040 C   0  0  0  0  0  2  0  0  0  0  0  0
  1 13  1  0  0  0  0
  2  1  2  0  0  0  0
  3  1  1  0  0  0  0
  3  4  2  0  0  0  0
  5  4  1  0  0  0  0
  5 10  1  0  0  0  0
  6  5  2  0  0  0  0
  7  6  1  0  0  0  0
  7  8  2  0  0  0  0
  8  9  1  0  0  0  0
  9 10  2  0  0  0  0
 11  8  1  0  0  0  0
 12 11  1  0  0  0  0
 13 14  1  0  0  0  0
 14 17  1  1  0  0  0
 14 15  1  0  0  0  0
 15 16  1  0  0  0  0
 17 18  1  0  0  0  0
 19 20  1  0  0  0  0
 20 18  1  0  0  0  0
M  END
>  <MODEL>
5

>  <REMARK>
 VINA RESULT:      -4.1      2.018      3.580
  Name = s2_esm2_control_ligand
  12 active torsions:
  status: ('A' for Active; 'I' for Inactive)
    1  A    between atoms: C_1  and  C_2
    2  A    between atoms: C_2  and  C_3
    3  A    between atoms: C_3  and  C_4
    4  A    between atoms: C_4  and  C_5
    5  A    between atoms: C_5  and  C_6
    6  A    between atoms: C_5  and  O_8
    7  A    between atoms: C_6  and  C_7
    8  A    between atoms: O_8  and  C_9
    9  A    between atoms: C_9  and  C_11
   10  A    between atoms: C_12  and  C_13
   11  A    between atoms: C_16  and  O_17
   12  A    between atoms: O_17  and  C_18
                            x       y       z     vdW  Elec       q    Type
                         _______ _______ _______ _____ _____    ______ ____

>  <TORSDO>
F 9

$$$$
s2_esm2_control_ligand
 OpenBabel10092621043D

 20 20  0  0  1  0  0  0  0  0999 V2000
   -0.7300    9.8750    6.0660 C   0  0  0  0  0  0  0  0  0  0  0  0
   -0.5930   10.8490    6.7570 O   0  0  0  0  0  0  0  0  0  0  0  0
   -2.0510    9.3880    5.5910 C   0  0  0  0  0  3  0  0  0  0  0  0
   -2.8440   10.2440    4.8870 C   0  0  0  0  0  3  0  0  0  0  0  0
   -4.1560    9.8640    4.3270 C   0  0  0  0  0  0  0  0  0  0  0  0
   -5.0420    9.1830    5.1420 C   0  0  0  0  0  3  0  0  0  0  0  0
   -6.2910    8.8160    4.6770 C   0  0  0  0  0  3  0  0  0  0  0  0
   -6.6730    9.1230    3.3960 C   0  0  0  0  0  0  0  0  0  0  0  0
   -5.7960    9.8050    2.5820 C   0  0  0  0  0  3  0  0  0  0  0  0
   -4.5400   10.1710    3.0490 C   0  0  0  0  0  3  0  0  0  0  0  0
   -7.9080    8.7460    2.9910 O   0  0  0  0  0  0  0  0  0  0  0  0
   -8.5830    7.6900    3.6630 C   0  0  0  0  0  1  0  0  0  0  0  0
    0.3360    9.1590    5.6520 O   0  0  0  0  0  0  0  0  0  0  0  0
    0.4870    8.8700    4.2730 C   0  0  1  0  0  3  0  0  0  0  0  0
    0.9600   10.1350    3.5610 C   0  0  0  0  0  2  0  0  0  0  0  0
    0.0440   10.6030    2.4440 C   0  0  0  0  0  1  0  0  0  0  0  0
    1.5050    7.7690    4.0920 C   0  0  0  0  0  2  0  0  0  0  0  0
    1.1360    6.7670    3.0440 C   0  0  0  0  0  2  0  0  0  0  0  0
    1.4950    7.5870    0.7150 C   0  0  0  0  0  1  0  0  0  0  0  0
    2.0800    6.7950    1.8790 C   0  0  0  0  0  2  0  0  0  0  0  0
  1  2  2  0  0  0  0
  3  1  1  0  0  0  0
  4  3  2  0  0  0  0
  5  4  1  0  0  0  0
  5  6  1  0  0  0  0
  7  6  2  0  0  0  0
  8  7  1  0  0  0  0
  9 10  1  0  0  0  0
  9  8  2  0  0  0  0
 10  5  2  0  0  0  0
 11  8  1  0  0  0  0
 11 12  1  0  0  0  0
 13  1  1  0  0  0  0
 14 15  1  6  0  0  0
 14 13  1  0  0  0  0
 16 15  1  0  0  0  0
 17 14  1  0  0  0  0
 18 17  1  0  0  0  0
 19 20  1  0  0  0  0
 20 18  1  0  0  0  0
M  END
>  <MODEL>
6

>  <REMARK>
 VINA RESULT:      -4.1      1.771      7.182
  Name = s2_esm2_control_ligand
  12 active torsions:
  status: ('A' for Active; 'I' for Inactive)
    1  A    between atoms: C_1  and  C_2
    2  A    between atoms: C_2  and  C_3
    3  A    between atoms: C_3  and  C_4
    4  A    between atoms: C_4  and  C_5
    5  A    between atoms: C_5  and  C_6
    6  A    between atoms: C_5  and  O_8
    7  A    between atoms: C_6  and  C_7
    8  A    between atoms: O_8  and  C_9
    9  A    between atoms: C_9  and  C_11
   10  A    between atoms: C_12  and  C_13
   11  A    between atoms: C_16  and  O_17
   12  A    between atoms: O_17  and  C_18
                            x       y       z     vdW  Elec       q    Type
                         _______ _______ _______ _____ _____    ______ ____

>  <TORSDO>
F 9

$$$$
s2_esm2_control_ligand
 OpenBabel10092621043D

 20 20  0  0  1  0  0  0  0  0999 V2000
   -8.0210    8.6130    5.3250 C   0  0  0  0  0  0  0  0  0  0  0  0
   -8.4330    7.6520    4.7290 O   0  0  0  0  0  0  0  0  0  0  0  0
   -6.5770    8.9120    5.4980 C   0  0  0  0  0  3  0  0  0  0  0  0
   -5.8700    9.3460    4.4170 C   0  0  0  0  0  3  0  0  0  0  0  0
   -4.4410    9.7160    4.4720 C   0  0  0  0  0  0  0  0  0  0  0  0
   -3.9390   10.5310    3.4730 C   0  0  0  0  0  3  0  0  0  0  0  0
   -2.6140   10.9230    3.4810 C   0  0  0  0  0  3  0  0  0  0  0  0
   -1.7730   10.5090    4.4820 C   0  0  0  0  0  0  0  0  0  0  0  0
   -2.2690    9.7010    5.4800 C   0  0  0  0  0  3  0  0  0  0  0  0
   -3.6000    9.3040    5.4710 C   0  0  0  0  0  3  0  0  0  0  0  0
   -0.4860   10.9250    4.4460 O   0  0  0  0  0  0  0  0  0  0  0  0
    0.5440   10.0890    4.9580 C   0  0  0  0  0  1  0  0  0  0  0  0
   -8.8690    9.5090    5.8690 O   0  0  0  0  0  0  0  0  0  0  0  0
   -8.3590   10.5280    6.7110 C   0  0  1  0  0  3  0  0  0  0  0  0
   -8.7890   11.8810    6.1500 C   0  0  0  0  0  2  0  0  0  0  0  0
   -7.9140   12.3960    5.0210 C   0  0  0  0  0  1  0  0  0  0  0  0
   -8.9060   10.3550    8.1080 C   0  0  0  0  0  2  0  0  0  0  0  0
   -9.0200   11.6340    8.8780 C   0  0  0  0  0  2  0  0  0  0  0  0
   -7.8560   13.2920   10.3340 C   0  0  0  0  0  1  0  0  0  0  0  0
   -7.8070   11.8980    9.7180 C   0  0  0  0  0  2  0  0  0  0  0  0
  1  3  1  0  0  0  0
  1 13  1  0  0  0  0
  2  1  2  0  0  0  0
  4  5  1  0  0  0  0
  4  3  2  0  0  0  0
  5 10  1  0  0  0  0
  6  7  1  0  0  0  0
  6  5  2  0  0  0  0
  7  8  2  0  0  0  0
  8  9  1  0  0  0  0
 10  9  2  0  0  0  0
 11  8  1  0  0  0  0
 11 12  1  0  0  0  0
 13 14  1  0  0  0  0
 14 15  1  6  0  0  0
 14 17  1  0  0  0  0
 16 15  1  0  0  0  0
 17 18  1  0  0  0  0
 18 20  1  0  0  0  0
 20 19  1  0  0  0  0
M  END
>  <MODEL>
7

>  <REMARK>
 VINA RESULT:      -4.1      2.719      4.573
  Name = s2_esm2_control_ligand
  12 active torsions:
  status: ('A' for Active; 'I' for Inactive)
    1  A    between atoms: C_1  and  C_2
    2  A    between atoms: C_2  and  C_3
    3  A    between atoms: C_3  and  C_4
    4  A    between atoms: C_4  and  C_5
    5  A    between atoms: C_5  and  C_6
    6  A    between atoms: C_5  and  O_8
    7  A    between atoms: C_6  and  C_7
    8  A    between atoms: O_8  and  C_9
    9  A    between atoms: C_9  and  C_11
   10  A    between atoms: C_12  and  C_13
   11  A    between atoms: C_16  and  O_17
   12  A    between atoms: O_17  and  C_18
                            x       y       z     vdW  Elec       q    Type
                         _______ _______ _______ _____ _____    ______ ____

>  <TORSDO>
F 9

$$$$
s2_esm2_control_ligand
 OpenBabel10092621043D

 20 20  0  0  1  0  0  0  0  0999 V2000
   -7.3220    8.7300    5.2350 C   0  0  0  0  0  0  0  0  0  0  0  0
   -7.8680    9.0800    6.2480 O   0  0  0  0  0  0  0  0  0  0  0  0
   -5.8470    8.6510    5.0840 C   0  0  0  0  0  3  0  0  0  0  0  0
   -5.1350    9.8120    5.0480 C   0  0  0  0  0  3  0  0  0  0  0  0
   -3.6630    9.8620    4.9450 C   0  0  0  0  0  0  0  0  0  0  0  0
   -2.9200    9.0760    5.8080 C   0  0  0  0  0  3  0  0  0  0  0  0
   -1.5400    9.0690    5.7470 C   0  0  0  0  0  3  0  0  0  0  0  0
   -0.8810    9.8450    4.8280 C   0  0  0  0  0  0  0  0  0  0  0  0
   -1.6160   10.6270    3.9640 C   0  0  0  0  0  3  0  0  0  0  0  0
   -3.0030   10.6350    4.0270 C   0  0  0  0  0  3  0  0  0  0  0  0
    0.4710    9.7990    4.8060 O   0  0  0  0  0  0  0  0  0  0  0  0
    1.1410    9.1320    3.7450 C   0  0  0  0  0  1  0  0  0  0  0  0
   -8.0380    8.3580    4.1530 O   0  0  0  0  0  0  0  0  0  0  0  0
   -8.6680    7.0890    4.1390 C   0  0  1  0  0  3  0  0  0  0  0  0
  -10.1420    7.2840    3.7910 C   0  0  0  0  0  2  0  0  0  0  0  0
  -11.1050    6.8640    4.8880 C   0  0  0  0  0  1  0  0  0  0  0  0
   -8.0110    6.2050    3.1070 C   0  0  0  0  0  2  0  0  0  0  0  0
   -8.0010    4.7530    3.4690 C   0  0  0  0  0  2  0  0  0  0  0  0
   -6.9890    3.1380    1.8570 C   0  0  0  0  0  1  0  0  0  0  0  0
   -8.2560    3.8730    2.2810 C   0  0  0  0  0  2  0  0  0  0  0  0
  1  2  2  0  0  0  0
  3  1  1  0  0  0  0
  4  3  2  0  0  0  0
  5  4  1  0  0  0  0
  5  6  1  0  0  0  0
  7  6  2  0  0  0  0
  8  7  1  0  0  0  0
  9 10  1  0  0  0  0
  9  8  2  0  0  0  0
 10  5  2  0  0  0  0
 11  8  1  0  0  0  0
 12 11  1  0  0  0  0
 13  1  1  0  0  0  0
 14 17  1  6  0  0  0
 14 13  1  0  0  0  0
 15 14  1  0  0  0  0
 15 16  1  0  0  0  0
 17 18  1  0  0  0  0
 19 20  1  0  0  0  0
 20 18  1  0  0  0  0
M  END
>  <MODEL>
8

>  <REMARK>
 VINA RESULT:      -4.1      1.591      2.982
  Name = s2_esm2_control_ligand
  12 active torsions:
  status: ('A' for Active; 'I' for Inactive)
    1  A    between atoms: C_1  and  C_2
    2  A    between atoms: C_2  and  C_3
    3  A    between atoms: C_3  and  C_4
    4  A    between atoms: C_4  and  C_5
    5  A    between atoms: C_5  and  C_6
    6  A    between atoms: C_5  and  O_8
    7  A    between atoms: C_6  and  C_7
    8  A    between atoms: O_8  and  C_9
    9  A    between atoms: C_9  and  C_11
   10  A    between atoms: C_12  and  C_13
   11  A    between atoms: C_16  and  O_17
   12  A    between atoms: O_17  and  C_18
                            x       y       z     vdW  Elec       q    Type
                         _______ _______ _______ _____ _____    ______ ____

>  <TORSDO>
F 9

$$$$
s2_esm2_control_ligand
 OpenBabel10092621043D

 20 20  0  0  1  0  0  0  0  0999 V2000
   -7.6140    8.4350    4.8860 C   0  0  0  0  0  0  0  0  0  0  0  0
   -8.7170    8.6410    5.3160 O   0  0  0  0  0  0  0  0  0  0  0  0
   -6.3820    9.0150    5.4790 C   0  0  0  0  0  3  0  0  0  0  0  0
   -5.2630    9.0940    4.7040 C   0  0  0  0  0  3  0  0  0  0  0  0
   -3.9930    9.6880    5.1650 C   0  0  0  0  0  0  0  0  0  0  0  0
   -3.0050    8.8390    5.6320 C   0  0  0  0  0  3  0  0  0  0  0  0
   -1.7900    9.3370    6.0610 C   0  0  0  0  0  3  0  0  0  0  0  0
   -1.5420   10.6850    6.0320 C   0  0  0  0  0  0  0  0  0  0  0  0
   -2.5210   11.5350    5.5650 C   0  0  0  0  0  3  0  0  0  0  0  0
   -3.7430   11.0340    5.1360 C   0  0  0  0  0  3  0  0  0  0  0  0
   -0.3340   11.1210    6.4590 O   0  0  0  0  0  0  0  0  0  0  0  0
    0.2830   10.5110    7.5850 C   0  0  0  0  0  1  0  0  0  0  0  0
   -7.4220    7.6250    3.8250 O   0  0  0  0  0  0  0  0  0  0  0  0
   -8.4810    6.7940    3.3830 C   0  0  1  0  0  3  0  0  0  0  0  0
   -8.7370    7.0790    1.9050 C   0  0  0  0  0  2  0  0  0  0  0  0
   -7.7310    8.0230    1.2680 C   0  0  0  0  0  1  0  0  0  0  0  0
   -8.1010    5.3440    3.5670 C   0  0  0  0  0  2  0  0  0  0  0  0
   -8.3750    4.4880    2.3700 C   0  0  0  0  0  2  0  0  0  0  0  0
   -6.7410    3.6110    0.7000 C   0  0  0  0  0  1  0  0  0  0  0  0
   -7.2780    3.4960    2.1230 C   0  0  0  0  0  2  0  0  0  0  0  0
  1  2  2  0  0  0  0
  1  3  1  0  0  0  0
  4  5  1  0  0  0  0
  4  3  2  0  0  0  0
  5  6  1  0  0  0  0
  6  7  2  0  0  0  0
  8  7  1  0  0  0  0
  8 11  1  0  0  0  0
  9  8  2  0  0  0  0
 10  5  2  0  0  0  0
 10  9  1  0  0  0  0
 11 12  1  0  0  0  0
 13  1  1  0  0  0  0
 14 15  1  6  0  0  0
 14 17  1  0  0  0  0
 14 13  1  0  0  0  0
 16 15  1  0  0  0  0
 18 17  1  0  0  0  0
 19 20  1  0  0  0  0
 20 18  1  0  0  0  0
M  END
>  <MODEL>
9

>  <REMARK>
 VINA RESULT:      -4.0      1.797      3.197
  Name = s2_esm2_control_ligand
  12 active torsions:
  status: ('A' for Active; 'I' for Inactive)
    1  A    between atoms: C_1  and  C_2
    2  A    between atoms: C_2  and  C_3
    3  A    between atoms: C_3  and  C_4
    4  A    between atoms: C_4  and  C_5
    5  A    between atoms: C_5  and  C_6
    6  A    between atoms: C_5  and  O_8
    7  A    between atoms: C_6  and  C_7
    8  A    between atoms: O_8  and  C_9
    9  A    between atoms: C_9  and  C_11
   10  A    between atoms: C_12  and  C_13
   11  A    between atoms: C_16  and  O_17
   12  A    between atoms: O_17  and  C_18
                            x       y       z     vdW  Elec       q    Type
                         _______ _______ _______ _____ _____    ______ ____

>  <TORSDO>
F 9

$$$$
