bg33_3_dockpose6
     RDKit          3D

 20 20  0  0  0  0  0  0  0  0999 V2000
    8.9860    2.8410    6.2740 C   0  0  0  0  0  0  0  0  0  0  0  0
    7.4680    3.1230    6.2430 C   0  0  0  0  0  0  0  0  0  0  0  0
    6.8420    2.2530    5.2000 C   0  0  0  0  0  0  0  0  0  0  0  0
    7.8690    1.6780    4.2000 C   0  0  0  0  0  0  0  0  0  0  0  0
    7.2650    1.7860    2.8110 C   0  0  1  0  0  0  0  0  0  0  0  0
    6.7110    3.1180    2.6080 C   0  0  0  0  0  0  0  0  0  0  0  0
    5.8480    3.2260    1.3870 C   0  0  0  0  0  0  0  0  0  0  0  0
    8.2790    1.5430    1.7840 O   0  0  0  0  0  0  0  0  0  0  0  0
    8.2590    0.4210    1.2010 C   0  0  0  0  0  0  0  0  0  0  0  0
    8.7300   -0.5210    1.7940 O   0  0  0  0  0  0  0  0  0  0  0  0
    7.6760    0.2770   -0.2450 C   0  0  0  0  0  0  0  0  0  0  0  0
    6.5920   -0.5100   -0.4340 C   0  0  0  0  0  0  0  0  0  0  0  0
    6.0560   -0.7710   -1.7450 C   0  0  0  0  0  0  0  0  0  0  0  0
    5.4980   -1.9910   -2.0580 C   0  0  0  0  0  0  0  0  0  0  0  0
    4.9440   -2.2440   -3.2610 C   0  0  0  0  0  0  0  0  0  0  0  0
    4.9470   -1.2400   -4.2030 C   0  0  0  0  0  0  0  0  0  0  0  0
    4.4480   -1.4230   -5.4440 O   0  0  0  0  0  0  0  0  0  0  0  0
    5.3960   -1.7410   -6.4480 C   0  0  0  0  0  0  0  0  0  0  0  0
    5.5210   -0.0350   -3.9400 C   0  0  0  0  0  0  0  0  0  0  0  0
    6.0710    0.2010   -2.6990 C   0  0  0  0  0  0  0  0  0  0  0  0
  2  1  1  0
  3  2  1  0
  4  3  1  0
  5  4  1  1
  6  5  1  0
  7  6  1  0
  8  5  1  0
  9  8  1  0
 10  9  2  0
 11  9  1  0
 12 11  2  3
 13 12  1  0
 14 13  1  0
 15 14  2  0
 16 15  1  0
 17 16  1  0
 18 17  1  0
 19 16  2  0
 20 19  1  0
 20 13  2  0
M  END
$$$$
