shuffle_control_ligand
     RDKit          3D

 44 44  0  0  0  0  0  0  0  0999 V2000
   -6.2777   -0.2558    8.0678 C   0  0  0  0  0  0  0  0  0  0  0  0
   -6.6384   -1.0508    6.8441 C   0  0  0  0  0  0  0  0  0  0  0  0
   -5.4551   -1.2530    5.9344 C   0  0  0  0  0  0  0  0  0  0  0  0
   -5.7947   -2.0930    4.7455 C   0  0  0  0  0  0  0  0  0  0  0  0
   -4.6618   -2.2415    3.7562 C   0  0  2  0  0  0  0  0  0  0  0  0
   -5.0067   -3.3461    2.7694 C   0  0  0  0  0  0  0  0  0  0  0  0
   -3.8392   -3.9597    2.0752 C   0  0  0  0  0  0  0  0  0  0  0  0
   -3.4872   -2.5776    4.4656 O   0  0  0  0  0  0  0  0  0  0  0  0
   -2.4453   -1.7398    4.4838 C   0  0  0  0  0  0  0  0  0  0  0  0
   -2.4602   -0.6995    3.8816 O   0  0  0  0  0  0  0  0  0  0  0  0
   -1.3042   -2.2188    5.2998 C   0  0  0  0  0  0  0  0  0  0  0  0
   -0.1785   -1.5036    5.3874 C   0  0  0  0  0  0  0  0  0  0  0  0
    1.0140   -1.9281    6.1583 C   0  0  0  0  0  0  0  0  0  0  0  0
    0.9911   -2.9903    7.0236 C   0  0  0  0  0  0  0  0  0  0  0  0
    2.1346   -3.3558    7.7266 C   0  0  0  0  0  0  0  0  0  0  0  0
    3.3023   -2.6566    7.5663 C   0  0  0  0  0  0  0  0  0  0  0  0
    4.4576   -2.9689    8.2207 O   0  0  0  0  0  0  0  0  0  0  0  0
    4.4850   -4.0493    9.1340 C   0  0  0  0  0  0  0  0  0  0  0  0
    3.3300   -1.5898    6.7021 C   0  0  0  0  0  0  0  0  0  0  0  0
    2.1879   -1.2222    6.0004 C   0  0  0  0  0  0  0  0  0  0  0  0
   -7.0103   -0.4553    8.8638 H   0  0  0  0  0  0  0  0  0  0  0  0
   -5.2743   -0.5470    8.4117 H   0  0  0  0  0  0  0  0  0  0  0  0
   -6.2847    0.8167    7.8235 H   0  0  0  0  0  0  0  0  0  0  0  0
   -7.0172   -2.0346    7.1583 H   0  0  0  0  0  0  0  0  0  0  0  0
   -7.4035   -0.4897    6.2873 H   0  0  0  0  0  0  0  0  0  0  0  0
   -5.1042   -0.2705    5.5856 H   0  0  0  0  0  0  0  0  0  0  0  0
   -4.6746   -1.7764    6.5063 H   0  0  0  0  0  0  0  0  0  0  0  0
   -6.0791   -3.0950    5.0994 H   0  0  0  0  0  0  0  0  0  0  0  0
   -6.6142   -1.5828    4.2181 H   0  0  0  0  0  0  0  0  0  0  0  0
   -4.5048   -1.3025    3.2053 H   0  0  0  0  0  0  0  0  0  0  0  0
   -5.5336   -4.1409    3.3178 H   0  0  0  0  0  0  0  0  0  0  0  0
   -5.6182   -2.8767    1.9848 H   0  0  0  0  0  0  0  0  0  0  0  0
   -2.9549   -3.9053    2.7271 H   0  0  0  0  0  0  0  0  0  0  0  0
   -4.0611   -5.0123    1.8451 H   0  0  0  0  0  0  0  0  0  0  0  0
   -3.6400   -3.4143    1.1409 H   0  0  0  0  0  0  0  0  0  0  0  0
   -1.3850   -3.1739    5.8395 H   0  0  0  0  0  0  0  0  0  0  0  0
   -0.1343   -0.5421    4.8551 H   0  0  0  0  0  0  0  0  0  0  0  0
    0.0601   -3.5593    7.1637 H   0  0  0  0  0  0  0  0  0  0  0  0
    2.1012   -4.2123    8.4160 H   0  0  0  0  0  0  0  0  0  0  0  0
    4.4955   -3.6597   10.1626 H   0  0  0  0  0  0  0  0  0  0  0  0
    3.5924   -4.6755    8.9881 H   0  0  0  0  0  0  0  0  0  0  0  0
    5.3884   -4.6527    8.9612 H   0  0  0  0  0  0  0  0  0  0  0  0
    4.2623   -1.0224    6.5643 H   0  0  0  0  0  0  0  0  0  0  0  0
    2.2209   -0.3626    5.3148 H   0  0  0  0  0  0  0  0  0  0  0  0
  2  1  1  0
  3  2  1  0
  4  3  1  0
  5  4  1  0
  6  5  1  0
  7  6  1  0
  8  5  1  0
  9  8  1  0
 10  9  2  0
 11  9  1  0
 12 11  2  3
 13 12  1  0
 14 13  1  0
 15 14  2  0
 16 15  1  0
 17 16  1  0
 18 17  1  0
 19 16  2  0
 20 19  1  0
 20 13  2  0
  1 21  1  0
  1 22  1  0
  1 23  1  0
  2 24  1  0
  2 25  1  0
  3 26  1  0
  3 27  1  0
  4 28  1  0
  4 29  1  0
  5 30  1  6
  6 31  1  0
  6 32  1  0
  7 33  1  0
  7 34  1  0
  7 35  1  0
 11 36  1  0
 12 37  1  0
 14 38  1  0
 15 39  1  0
 18 40  1  0
 18 41  1  0
 18 42  1  0
 19 43  1  0
 20 44  1  0
M  END
$$$$
