shuffle_control_ligand
 OpenBabel10092621093D

 20 20  0  0  1  0  0  0  0  0999 V2000
   -6.7060   -3.0330   -3.8180 C   0  0  0  0  0  0  0  0  0  0  0  0
   -5.9340   -2.2350   -4.2780 O   0  0  0  0  0  0  0  0  0  0  0  0
   -6.3230   -4.3710   -3.3070 C   0  0  0  0  0  3  0  0  0  0  0  0
   -5.4010   -4.4980   -2.3470 C   0  0  0  0  0  3  0  0  0  0  0  0
   -4.9450   -5.7990   -1.8060 C   0  0  0  0  0  0  0  0  0  0  0  0
   -5.4420   -6.9970   -2.2490 C   0  0  0  0  0  3  0  0  0  0  0  0
   -4.9830   -8.1970   -1.7140 C   0  0  0  0  0  3  0  0  0  0  0  0
   -4.0280   -8.1990   -0.7320 C   0  0  0  0  0  0  0  0  0  0  0  0
   -3.5290   -7.0020   -0.2810 C   0  0  0  0  0  3  0  0  0  0  0  0
   -3.9870   -5.8020   -0.8130 C   0  0  0  0  0  3  0  0  0  0  0  0
   -3.5330   -9.3400   -0.1710 O   0  0  0  0  0  0  0  0  0  0  0  0
   -2.2410   -9.3440    0.4050 C   0  0  0  0  0  1  0  0  0  0  0  0
   -8.0150   -2.7740   -3.7270 O   0  0  0  0  0  0  0  0  0  0  0  0
   -8.4650   -1.5670   -3.1440 C   0  0  1  0  0  3  0  0  0  0  0  0
   -9.3980   -0.8440   -4.1030 C   0  0  0  0  0  2  0  0  0  0  0  0
   -8.7190   -0.0650   -5.1780 C   0  0  0  0  0  1  0  0  0  0  0  0
   -9.2200   -1.8980   -1.8770 C   0  0  0  0  0  2  0  0  0  0  0  0
   -8.4320   -1.6750   -0.6270 C   0  0  0  0  0  2  0  0  0  0  0  0
   -8.7450   -4.1390   -0.3910 C   0  0  0  0  0  1  0  0  0  0  0  0
   -7.8710   -2.9580   -0.0720 C   0  0  0  0  0  2  0  0  0  0  0  0
  1 13  1  0  0  0  0
  1  3  1  0  0  0  0
  2  1  2  0  0  0  0
  3  4  2  0  0  0  0
  4  5  1  0  0  0  0
  5 10  1  0  0  0  0
  6  5  2  0  0  0  0
  6  7  1  0  0  0  0
  7  8  2  0  0  0  0
  8  9  1  0  0  0  0
  8 11  1  0  0  0  0
 10  9  2  0  0  0  0
 11 12  1  0  0  0  0
 13 14  1  0  0  0  0
 14 15  1  6  0  0  0
 14 17  1  0  0  0  0
 16 15  1  0  0  0  0
 17 18  1  0  0  0  0
 18 20  1  0  0  0  0
 19 20  1  0  0  0  0
M  END
>  <MODEL>
1

>  <REMARK>
 VINA RESULT:      -3.8      0.000      0.000
  Name = shuffle_control_ligand
  12 active torsions:
  status: ('A' for Active; 'I' for Inactive)
    1  A    between atoms: C_1  and  C_2
    2  A    between atoms: C_2  and  C_3
    3  A    between atoms: C_3  and  C_4
    4  A    between atoms: C_4  and  C_5
    5  A    between atoms: C_5  and  C_6
    6  A    between atoms: C_5  and  O_8
    7  A    between atoms: C_6  and  C_7
    8  A    between atoms: O_8  and  C_9
    9  A    between atoms: C_9  and  C_11
   10  A    between atoms: C_12  and  C_13
   11  A    between atoms: C_16  and  O_17
   12  A    between atoms: O_17  and  C_18
                            x       y       z     vdW  Elec       q    Type
                         _______ _______ _______ _____ _____    ______ ____

>  <TORSDO>
F 9

$$$$
shuffle_control_ligand
 OpenBabel10092621093D

 20 20  0  0  1  0  0  0  0  0999 V2000
    1.0650   -4.1500    6.1300 C   0  0  0  0  0  0  0  0  0  0  0  0
    0.0470   -4.1510    5.4910 O   0  0  0  0  0  0  0  0  0  0  0  0
    1.1440   -3.8350    7.5770 C   0  0  0  0  0  3  0  0  0  0  0  0
    0.7120   -2.6600    8.0450 C   0  0  0  0  0  3  0  0  0  0  0  0
    0.7830   -2.2600    9.4700 C   0  0  0  0  0  0  0  0  0  0  0  0
    1.9730   -2.0550   10.1180 C   0  0  0  0  0  3  0  0  0  0  0  0
    1.9940   -1.6780   11.4580 C   0  0  0  0  0  3  0  0  0  0  0  0
    0.8240   -1.5090   12.1500 C   0  0  0  0  0  0  0  0  0  0  0  0
   -0.3710   -1.7170   11.5060 C   0  0  0  0  0  3  0  0  0  0  0  0
   -0.3940   -2.0950   10.1690 C   0  0  0  0  0  3  0  0  0  0  0  0
    0.7770   -1.1350   13.4620 O   0  0  0  0  0  0  0  0  0  0  0  0
    1.0200   -2.0880   14.4790 C   0  0  0  0  0  1  0  0  0  0  0  0
    2.2460   -4.4400    5.5740 O   0  0  0  0  0  0  0  0  0  0  0  0
    3.4030   -4.5610    6.3770 C   0  0  1  0  0  3  0  0  0  0  0  0
    4.0560   -5.9150    6.1450 C   0  0  0  0  0  2  0  0  0  0  0  0
    4.1110   -6.3530    4.7210 C   0  0  0  0  0  1  0  0  0  0  0  0
    4.3750   -3.4720    5.9860 C   0  0  0  0  0  2  0  0  0  0  0  0
    4.4330   -2.3360    6.9570 C   0  0  0  0  0  2  0  0  0  0  0  0
    3.5760   -0.0570    7.5020 C   0  0  0  0  0  1  0  0  0  0  0  0
    3.7270   -1.1100    6.4400 C   0  0  0  0  0  2  0  0  0  0  0  0
  1  3  1  0  0  0  0
  2  1  2  0  0  0  0
  3  4  2  0  0  0  0
  4  5  1  0  0  0  0
  5  6  2  0  0  0  0
  5 10  1  0  0  0  0
  6  7  1  0  0  0  0
  7  8  2  0  0  0  0
  8 11  1  0  0  0  0
  9  8  1  0  0  0  0
 10  9  2  0  0  0  0
 11 12  1  0  0  0  0
 13  1  1  0  0  0  0
 13 14  1  0  0  0  0
 14 17  1  6  0  0  0
 15 14  1  0  0  0  0
 16 15  1  0  0  0  0
 17 18  1  0  0  0  0
 20 18  1  0  0  0  0
 20 19  1  0  0  0  0
M  END
>  <MODEL>
2

>  <REMARK>
 VINA RESULT:      -3.8     11.758     14.684
  Name = shuffle_control_ligand
  12 active torsions:
  status: ('A' for Active; 'I' for Inactive)
    1  A    between atoms: C_1  and  C_2
    2  A    between atoms: C_2  and  C_3
    3  A    between atoms: C_3  and  C_4
    4  A    between atoms: C_4  and  C_5
    5  A    between atoms: C_5  and  C_6
    6  A    between atoms: C_5  and  O_8
    7  A    between atoms: C_6  and  C_7
    8  A    between atoms: O_8  and  C_9
    9  A    between atoms: C_9  and  C_11
   10  A    between atoms: C_12  and  C_13
   11  A    between atoms: C_16  and  O_17
   12  A    between atoms: O_17  and  C_18
                            x       y       z     vdW  Elec       q    Type
                         _______ _______ _______ _____ _____    ______ ____

>  <TORSDO>
F 9

$$$$
shuffle_control_ligand
 OpenBabel10092621093D

 20 20  0  0  1  0  0  0  0  0999 V2000
   -8.0030   -2.9480   -1.3010 C   0  0  0  0  0  0  0  0  0  0  0  0
   -8.2600   -2.3500   -2.3120 O   0  0  0  0  0  0  0  0  0  0  0  0
   -6.7700   -3.7430   -1.0880 C   0  0  0  0  0  3  0  0  0  0  0  0
   -6.8280   -5.0710   -0.9570 C   0  0  0  0  0  3  0  0  0  0  0  0
   -5.6460   -5.9310   -0.7140 C   0  0  0  0  0  0  0  0  0  0  0  0
   -5.7240   -7.2990   -0.6890 C   0  0  0  0  0  3  0  0  0  0  0  0
   -4.5870   -8.0690   -0.4600 C   0  0  0  0  0  3  0  0  0  0  0  0
   -3.3730   -7.4700   -0.2530 C   0  0  0  0  0  0  0  0  0  0  0  0
   -3.2900   -6.1000   -0.2740 C   0  0  0  0  0  3  0  0  0  0  0  0
   -4.4240   -5.3290   -0.5010 C   0  0  0  0  0  3  0  0  0  0  0  0
   -2.2220   -8.1690   -0.0290 O   0  0  0  0  0  0  0  0  0  0  0  0
   -2.2730   -9.5640    0.1960 C   0  0  0  0  0  1  0  0  0  0  0  0
   -8.8340   -2.9460   -0.2530 O   0  0  0  0  0  0  0  0  0  0  0  0
   -8.9080   -1.8190    0.5980 C   0  0  1  0  0  3  0  0  0  0  0  0
  -10.3630   -1.4790    0.8820 C   0  0  0  0  0  2  0  0  0  0  0  0
  -11.3600   -2.2470    0.0820 C   0  0  0  0  0  1  0  0  0  0  0  0
   -8.2170   -2.1540    1.9000 C   0  0  0  0  0  2  0  0  0  0  0  0
   -8.4080   -3.5700    2.3400 C   0  0  0  0  0  2  0  0  0  0  0  0
   -7.2440   -5.7490    2.6900 C   0  0  0  0  0  1  0  0  0  0  0  0
   -7.0990   -4.2530    2.6370 C   0  0  0  0  0  2  0  0  0  0  0  0
  1  3  1  0  0  0  0
  1 13  1  0  0  0  0
  2  1  2  0  0  0  0
  3  4  2  0  0  0  0
  4  5  1  0  0  0  0
  5  6  2  0  0  0  0
  5 10  1  0  0  0  0
  6  7  1  0  0  0  0
  7  8  2  0  0  0  0
  8 11  1  0  0  0  0
  9  8  1  0  0  0  0
 10  9  2  0  0  0  0
 11 12  1  0  0  0  0
 13 14  1  0  0  0  0
 14 15  1  1  0  0  0
 14 17  1  0  0  0  0
 16 15  1  0  0  0  0
 17 18  1  0  0  0  0
 18 20  1  0  0  0  0
 20 19  1  0  0  0  0
M  END
>  <MODEL>
3

>  <REMARK>
 VINA RESULT:      -3.7      2.145      3.027
  Name = shuffle_control_ligand
  12 active torsions:
  status: ('A' for Active; 'I' for Inactive)
    1  A    between atoms: C_1  and  C_2
    2  A    between atoms: C_2  and  C_3
    3  A    between atoms: C_3  and  C_4
    4  A    between atoms: C_4  and  C_5
    5  A    between atoms: C_5  and  C_6
    6  A    between atoms: C_5  and  O_8
    7  A    between atoms: C_6  and  C_7
    8  A    between atoms: O_8  and  C_9
    9  A    between atoms: C_9  and  C_11
   10  A    between atoms: C_12  and  C_13
   11  A    between atoms: C_16  and  O_17
   12  A    between atoms: O_17  and  C_18
                            x       y       z     vdW  Elec       q    Type
                         _______ _______ _______ _____ _____    ______ ____

>  <TORSDO>
F 9

$$$$
shuffle_control_ligand
 OpenBabel10092621093D

 20 20  0  0  1  0  0  0  0  0999 V2000
    5.0690   -2.8900    6.5550 C   0  0  0  0  0  0  0  0  0  0  0  0
    6.1020   -2.4680    7.0020 O   0  0  0  0  0  0  0  0  0  0  0  0
    4.9290   -4.1850    5.8480 C   0  0  0  0  0  3  0  0  0  0  0  0
    4.7760   -5.3240    6.5320 C   0  0  0  0  0  3  0  0  0  0  0  0
    4.6580   -6.6590    5.9000 C   0  0  0  0  0  0  0  0  0  0  0  0
    4.2860   -6.8230    4.5910 C   0  0  0  0  0  3  0  0  0  0  0  0
    4.1900   -8.0960    4.0370 C   0  0  0  0  0  3  0  0  0  0  0  0
    4.4630   -9.2050    4.7930 C   0  0  0  0  0  0  0  0  0  0  0  0
    4.8330   -9.0460    6.1060 C   0  0  0  0  0  3  0  0  0  0  0  0
    4.9280   -7.7760    6.6620 C   0  0  0  0  0  3  0  0  0  0  0  0
    4.3930  -10.4790    4.3070 O   0  0  0  0  0  0  0  0  0  0  0  0
    3.1540  -11.1610    4.2850 C   0  0  0  0  0  1  0  0  0  0  0  0
    3.9260   -2.2040    6.6590 O   0  0  0  0  0  0  0  0  0  0  0  0
    3.2920   -2.0590    7.9140 C   0  0  1  0  0  3  0  0  0  0  0  0
    3.2310   -0.5890    8.2990 C   0  0  0  0  0  2  0  0  0  0  0  0
    3.6000    0.3640    7.2120 C   0  0  0  0  0  1  0  0  0  0  0  0
    1.8840   -2.5990    7.8060 C   0  0  0  0  0  2  0  0  0  0  0  0
    1.7490   -4.0270    8.2260 C   0  0  0  0  0  2  0  0  0  0  0  0
    1.0900   -4.1390    5.8220 C   0  0  0  0  0  1  0  0  0  0  0  0
    1.3310   -4.9180    7.0850 C   0  0  0  0  0  2  0  0  0  0  0  0
  1 13  1  0  0  0  0
  1  2  2  0  0  0  0
  3  4  2  0  0  0  0
  3  1  1  0  0  0  0
  5  4  1  0  0  0  0
  5 10  1  0  0  0  0
  6  5  2  0  0  0  0
  7  6  1  0  0  0  0
  7  8  2  0  0  0  0
  8  9  1  0  0  0  0
  9 10  2  0  0  0  0
 11  8  1  0  0  0  0
 12 11  1  0  0  0  0
 13 14  1  0  0  0  0
 14 17  1  6  0  0  0
 14 15  1  0  0  0  0
 16 15  1  0  0  0  0
 17 18  1  0  0  0  0
 19 20  1  0  0  0  0
 20 18  1  0  0  0  0
M  END
>  <MODEL>
4

>  <REMARK>
 VINA RESULT:      -3.7     11.709     13.459
  Name = shuffle_control_ligand
  12 active torsions:
  status: ('A' for Active; 'I' for Inactive)
    1  A    between atoms: C_1  and  C_2
    2  A    between atoms: C_2  and  C_3
    3  A    between atoms: C_3  and  C_4
    4  A    between atoms: C_4  and  C_5
    5  A    between atoms: C_5  and  C_6
    6  A    between atoms: C_5  and  O_8
    7  A    between atoms: C_6  and  C_7
    8  A    between atoms: O_8  and  C_9
    9  A    between atoms: C_9  and  C_11
   10  A    between atoms: C_12  and  C_13
   11  A    between atoms: C_16  and  O_17
   12  A    between atoms: O_17  and  C_18
                            x       y       z     vdW  Elec       q    Type
                         _______ _______ _______ _____ _____    ______ ____

>  <TORSDO>
F 9

$$$$
shuffle_control_ligand
 OpenBabel10092621093D

 20 20  0  0  1  0  0  0  0  0999 V2000
    0.8810   -3.8830    6.5780 C   0  0  0  0  0  0  0  0  0  0  0  0
    0.3560   -4.3910    5.6240 O   0  0  0  0  0  0  0  0  0  0  0  0
    0.1840   -3.0080    7.5510 C   0  0  0  0  0  3  0  0  0  0  0  0
    0.4120   -3.1260    8.8630 C   0  0  0  0  0  3  0  0  0  0  0  0
   -0.2640   -2.3100    9.8970 C   0  0  0  0  0  0  0  0  0  0  0  0
    0.2880   -2.0780   11.1300 C   0  0  0  0  0  3  0  0  0  0  0  0
   -0.3810   -1.3020   12.0720 C   0  0  0  0  0  3  0  0  0  0  0  0
   -1.6060   -0.7610   11.7820 C   0  0  0  0  0  0  0  0  0  0  0  0
   -2.1660   -0.9930   10.5500 C   0  0  0  0  0  3  0  0  0  0  0  0
   -1.4990   -1.7690    9.6080 C   0  0  0  0  0  3  0  0  0  0  0  0
   -2.3090    0.0120   12.6590 O   0  0  0  0  0  0  0  0  0  0  0  0
   -3.6540    0.3520   12.3820 C   0  0  0  0  0  1  0  0  0  0  0  0
    2.1770   -4.0690    6.8500 O   0  0  0  0  0  0  0  0  0  0  0  0
    3.1540   -3.2170    6.2850 C   0  0  1  0  0  3  0  0  0  0  0  0
    3.8010   -2.3760    7.3750 C   0  0  0  0  0  2  0  0  0  0  0  0
    3.2620   -0.9920    7.5080 C   0  0  0  0  0  1  0  0  0  0  0  0
    4.2140   -4.0710    5.6290 C   0  0  0  0  0  2  0  0  0  0  0  0
    3.9400   -5.5390    5.7000 C   0  0  0  0  0  2  0  0  0  0  0  0
    4.2300   -7.7160    4.5160 C   0  0  0  0  0  1  0  0  0  0  0  0
    4.1480   -6.2210    4.3740 C   0  0  0  0  0  2  0  0  0  0  0  0
  1 13  1  0  0  0  0
  1  3  1  0  0  0  0
  2  1  2  0  0  0  0
  3  4  2  0  0  0  0
  4  5  1  0  0  0  0
  5  6  1  0  0  0  0
  6  7  2  0  0  0  0
  8  7  1  0  0  0  0
  8 11  1  0  0  0  0
  9  8  2  0  0  0  0
 10  5  2  0  0  0  0
 10  9  1  0  0  0  0
 12 11  1  0  0  0  0
 14 17  1  1  0  0  0
 14 13  1  0  0  0  0
 14 15  1  0  0  0  0
 15 16  1  0  0  0  0
 17 18  1  0  0  0  0
 20 19  1  0  0  0  0
 20 18  1  0  0  0  0
M  END
>  <MODEL>
5

>  <REMARK>
 VINA RESULT:      -3.7     11.681     14.461
  Name = shuffle_control_ligand
  12 active torsions:
  status: ('A' for Active; 'I' for Inactive)
    1  A    between atoms: C_1  and  C_2
    2  A    between atoms: C_2  and  C_3
    3  A    between atoms: C_3  and  C_4
    4  A    between atoms: C_4  and  C_5
    5  A    between atoms: C_5  and  C_6
    6  A    between atoms: C_5  and  O_8
    7  A    between atoms: C_6  and  C_7
    8  A    between atoms: O_8  and  C_9
    9  A    between atoms: C_9  and  C_11
   10  A    between atoms: C_12  and  C_13
   11  A    between atoms: C_16  and  O_17
   12  A    between atoms: O_17  and  C_18
                            x       y       z     vdW  Elec       q    Type
                         _______ _______ _______ _____ _____    ______ ____

>  <TORSDO>
F 9

$$$$
shuffle_control_ligand
 OpenBabel10092621093D

 20 20  0  0  1  0  0  0  0  0999 V2000
    0.9770   -3.9200    6.2890 C   0  0  0  0  0  0  0  0  0  0  0  0
    0.1160   -4.3730    5.5830 O   0  0  0  0  0  0  0  0  0  0  0  0
    0.7510   -3.3980    7.6580 C   0  0  0  0  0  3  0  0  0  0  0  0
   -0.3910   -2.7780    7.9720 C   0  0  0  0  0  3  0  0  0  0  0  0
   -0.6800   -2.2060    9.3080 C   0  0  0  0  0  0  0  0  0  0  0  0
    0.1860   -2.3250   10.3630 C   0  0  0  0  0  3  0  0  0  0  0  0
   -0.1250   -1.7690   11.6010 C   0  0  0  0  0  3  0  0  0  0  0  0
   -1.3040   -1.0970   11.7840 C   0  0  0  0  0  0  0  0  0  0  0  0
   -2.1770   -0.9770   10.7300 C   0  0  0  0  0  3  0  0  0  0  0  0
   -1.8690   -1.5320    9.4940 C   0  0  0  0  0  3  0  0  0  0  0  0
   -1.6640   -0.5250   12.9690 O   0  0  0  0  0  0  0  0  0  0  0  0
   -0.8200   -0.6450   14.0980 C   0  0  0  0  0  1  0  0  0  0  0  0
    2.2500   -3.8460    5.8850 O   0  0  0  0  0  0  0  0  0  0  0  0
    3.3040   -4.0460    6.8060 C   0  0  1  0  0  3  0  0  0  0  0  0
    4.0090   -5.3610    6.5090 C   0  0  0  0  0  2  0  0  0  0  0  0
    4.1540   -5.6880    5.0620 C   0  0  0  0  0  1  0  0  0  0  0  0
    4.2930   -2.9130    6.6580 C   0  0  0  0  0  2  0  0  0  0  0  0
    3.6660   -1.6070    6.2910 C   0  0  0  0  0  2  0  0  0  0  0  0
    3.1770   -0.8190    8.6080 C   0  0  0  0  0  1  0  0  0  0  0  0
    3.9180   -0.5440    7.3290 C   0  0  0  0  0  2  0  0  0  0  0  0
  1  3  1  0  0  0  0
  2  1  2  0  0  0  0
  3  4  2  0  0  0  0
  4  5  1  0  0  0  0
  5 10  2  0  0  0  0
  5  6  1  0  0  0  0
  6  7  2  0  0  0  0
  7  8  1  0  0  0  0
  8 11  1  0  0  0  0
  9  8  2  0  0  0  0
 10  9  1  0  0  0  0
 11 12  1  0  0  0  0
 13  1  1  0  0  0  0
 13 14  1  0  0  0  0
 14 15  1  6  0  0  0
 16 15  1  0  0  0  0
 17 14  1  0  0  0  0
 18 17  1  0  0  0  0
 18 20  1  0  0  0  0
 20 19  1  0  0  0  0
M  END
>  <MODEL>
6

>  <REMARK>
 VINA RESULT:      -3.7     11.606     14.456
  Name = shuffle_control_ligand
  12 active torsions:
  status: ('A' for Active; 'I' for Inactive)
    1  A    between atoms: C_1  and  C_2
    2  A    between atoms: C_2  and  C_3
    3  A    between atoms: C_3  and  C_4
    4  A    between atoms: C_4  and  C_5
    5  A    between atoms: C_5  and  C_6
    6  A    between atoms: C_5  and  O_8
    7  A    between atoms: C_6  and  C_7
    8  A    between atoms: O_8  and  C_9
    9  A    between atoms: C_9  and  C_11
   10  A    between atoms: C_12  and  C_13
   11  A    between atoms: C_16  and  O_17
   12  A    between atoms: O_17  and  C_18
                            x       y       z     vdW  Elec       q    Type
                         _______ _______ _______ _____ _____    ______ ____

>  <TORSDO>
F 9

$$$$
shuffle_control_ligand
 OpenBabel10092621093D

 20 20  0  0  1  0  0  0  0  0999 V2000
    1.1890   -4.3310    6.7040 C   0  0  0  0  0  0  0  0  0  0  0  0
    1.0650   -5.5120    6.8830 O   0  0  0  0  0  0  0  0  0  0  0  0
    0.3240   -3.2950    7.3170 C   0  0  0  0  0  3  0  0  0  0  0  0
    0.0300   -3.3340    8.6200 C   0  0  0  0  0  3  0  0  0  0  0  0
   -0.8490   -2.3540    9.3000 C   0  0  0  0  0  0  0  0  0  0  0  0
   -0.6540   -1.9690   10.6010 C   0  0  0  0  0  3  0  0  0  0  0  0
   -1.5020   -1.0430   11.2010 C   0  0  0  0  0  3  0  0  0  0  0  0
   -2.5480   -0.5030   10.4990 C   0  0  0  0  0  0  0  0  0  0  0  0
   -2.7500   -0.8870    9.1960 C   0  0  0  0  0  3  0  0  0  0  0  0
   -1.9050   -1.8140    8.5960 C   0  0  0  0  0  3  0  0  0  0  0  0
   -3.4110    0.4130   11.0280 O   0  0  0  0  0  0  0  0  0  0  0  0
   -4.7950    0.1290   11.0890 C   0  0  0  0  0  1  0  0  0  0  0  0
    2.1450   -3.8360    5.9100 O   0  0  0  0  0  0  0  0  0  0  0  0
    3.4190   -3.5230    6.4370 C   0  0  1  0  0  3  0  0  0  0  0  0
    4.5020   -4.2210    5.6290 C   0  0  0  0  0  2  0  0  0  0  0  0
    4.1730   -5.6100    5.2000 C   0  0  0  0  0  1  0  0  0  0  0  0
    3.6220   -2.0280    6.3450 C   0  0  0  0  0  2  0  0  0  0  0  0
    4.1160   -1.4050    7.6110 C   0  0  0  0  0  2  0  0  0  0  0  0
    3.0320   -1.6250    9.8470 C   0  0  0  0  0  1  0  0  0  0  0  0
    2.9880   -0.9560    8.5020 C   0  0  0  0  0  2  0  0  0  0  0  0
  1  2  2  0  0  0  0
  1  3  1  0  0  0  0
  3  4  2  0  0  0  0
  4  5  1  0  0  0  0
  5  6  1  0  0  0  0
  6  7  2  0  0  0  0
  8 11  1  0  0  0  0
  8  7  1  0  0  0  0
  9  8  2  0  0  0  0
 10  9  1  0  0  0  0
 10  5  2  0  0  0  0
 11 12  1  0  0  0  0
 13 14  1  0  0  0  0
 13  1  1  0  0  0  0
 14 15  1  6  0  0  0
 16 15  1  0  0  0  0
 17 14  1  0  0  0  0
 17 18  1  0  0  0  0
 18 20  1  0  0  0  0
 20 19  1  0  0  0  0
M  END
>  <MODEL>
7

>  <REMARK>
 VINA RESULT:      -3.6     11.810     14.248
  Name = shuffle_control_ligand
  12 active torsions:
  status: ('A' for Active; 'I' for Inactive)
    1  A    between atoms: C_1  and  C_2
    2  A    between atoms: C_2  and  C_3
    3  A    between atoms: C_3  and  C_4
    4  A    between atoms: C_4  and  C_5
    5  A    between atoms: C_5  and  C_6
    6  A    between atoms: C_5  and  O_8
    7  A    between atoms: C_6  and  C_7
    8  A    between atoms: O_8  and  C_9
    9  A    between atoms: C_9  and  C_11
   10  A    between atoms: C_12  and  C_13
   11  A    between atoms: C_16  and  O_17
   12  A    between atoms: O_17  and  C_18
                            x       y       z     vdW  Elec       q    Type
                         _______ _______ _______ _____ _____    ______ ____

>  <TORSDO>
F 9

$$$$
shuffle_control_ligand
 OpenBabel10092621093D

 20 20  0  0  1  0  0  0  0  0999 V2000
    1.8950   -4.4520    6.2240 C   0  0  0  0  0  0  0  0  0  0  0  0
    0.7170   -4.6590    6.1130 O   0  0  0  0  0  0  0  0  0  0  0  0
    2.5100   -3.1030    6.2520 C   0  0  0  0  0  3  0  0  0  0  0  0
    2.7000   -2.4630    7.4100 C   0  0  0  0  0  3  0  0  0  0  0  0
    3.2810   -1.1040    7.5180 C   0  0  0  0  0  0  0  0  0  0  0  0
    3.6930   -0.3900    6.4230 C   0  0  0  0  0  3  0  0  0  0  0  0
    4.2310    0.8850    6.5690 C   0  0  0  0  0  3  0  0  0  0  0  0
    4.3600    1.4450    7.8130 C   0  0  0  0  0  0  0  0  0  0  0  0
    3.9530    0.7330    8.9140 C   0  0  0  0  0  3  0  0  0  0  0  0
    3.4160   -0.5410    8.7700 C   0  0  0  0  0  3  0  0  0  0  0  0
    4.8740    2.6920    8.0220 O   0  0  0  0  0  0  0  0  0  0  0  0
    5.3890    3.4370    6.9360 C   0  0  0  0  0  1  0  0  0  0  0  0
    2.7780   -5.4510    6.3330 O   0  0  0  0  0  0  0  0  0  0  0  0
    4.0270   -5.3740    5.6770 C   0  0  1  0  0  3  0  0  0  0  0  0
    5.1540   -5.5180    6.6890 C   0  0  0  0  0  2  0  0  0  0  0  0
    5.9860   -4.2960    6.8860 C   0  0  0  0  0  1  0  0  0  0  0  0
    4.1160   -6.5050    4.6780 C   0  0  0  0  0  2  0  0  0  0  0  0
    4.4110   -7.8350    5.2930 C   0  0  0  0  0  2  0  0  0  0  0  0
    5.0480  -10.1620    4.6570 C   0  0  0  0  0  1  0  0  0  0  0  0
    4.1960   -8.9690    4.3260 C   0  0  0  0  0  2  0  0  0  0  0  0
  1  3  1  0  0  0  0
  1 13  1  0  0  0  0
  2  1  2  0  0  0  0
  3  4  2  0  0  0  0
  4  5  1  0  0  0  0
  5 10  1  0  0  0  0
  6  7  1  0  0  0  0
  6  5  2  0  0  0  0
  7  8  2  0  0  0  0
  8 11  1  0  0  0  0
  8  9  1  0  0  0  0
 10  9  2  0  0  0  0
 12 11  1  0  0  0  0
 14 17  1  6  0  0  0
 14 13  1  0  0  0  0
 14 15  1  0  0  0  0
 15 16  1  0  0  0  0
 17 18  1  0  0  0  0
 20 19  1  0  0  0  0
 20 18  1  0  0  0  0
M  END
>  <MODEL>
8

>  <REMARK>
 VINA RESULT:      -3.6     12.086     15.132
  Name = shuffle_control_ligand
  12 active torsions:
  status: ('A' for Active; 'I' for Inactive)
    1  A    between atoms: C_1  and  C_2
    2  A    between atoms: C_2  and  C_3
    3  A    between atoms: C_3  and  C_4
    4  A    between atoms: C_4  and  C_5
    5  A    between atoms: C_5  and  C_6
    6  A    between atoms: C_5  and  O_8
    7  A    between atoms: C_6  and  C_7
    8  A    between atoms: O_8  and  C_9
    9  A    between atoms: C_9  and  C_11
   10  A    between atoms: C_12  and  C_13
   11  A    between atoms: C_16  and  O_17
   12  A    between atoms: O_17  and  C_18
                            x       y       z     vdW  Elec       q    Type
                         _______ _______ _______ _____ _____    ______ ____

>  <TORSDO>
F 9

$$$$
shuffle_control_ligand
 OpenBabel10092621093D

 20 20  0  0  1  0  0  0  0  0999 V2000
    0.8980   -3.9690    6.4240 C   0  0  0  0  0  0  0  0  0  0  0  0
    0.0430   -4.0550    5.5850 O   0  0  0  0  0  0  0  0  0  0  0  0
    0.7190   -3.3080    7.7390 C   0  0  0  0  0  3  0  0  0  0  0  0
   -0.4900   -2.9050    8.1420 C   0  0  0  0  0  3  0  0  0  0  0  0
   -0.7460   -2.2140    9.4270 C   0  0  0  0  0  0  0  0  0  0  0  0
    0.1480   -2.2370   10.4660 C   0  0  0  0  0  3  0  0  0  0  0  0
   -0.1320   -1.5710   11.6560 C   0  0  0  0  0  3  0  0  0  0  0  0
   -1.3070   -0.8840   11.8070 C   0  0  0  0  0  0  0  0  0  0  0  0
   -2.2070   -0.8600   10.7700 C   0  0  0  0  0  3  0  0  0  0  0  0
   -1.9300   -1.5250    9.5820 C   0  0  0  0  0  3  0  0  0  0  0  0
   -1.6370   -0.2060   12.9450 O   0  0  0  0  0  0  0  0  0  0  0  0
   -0.6200    0.2820   13.7980 C   0  0  0  0  0  1  0  0  0  0  0  0
    2.1210   -4.4780    6.2360 O   0  0  0  0  0  0  0  0  0  0  0  0
    2.5750   -5.5560    7.0290 C   0  0  1  0  0  3  0  0  0  0  0  0
    1.4910   -6.6180    7.1310 C   0  0  0  0  0  2  0  0  0  0  0  0
    1.9760   -7.9850    7.4790 C   0  0  0  0  0  1  0  0  0  0  0  0
    3.7940   -6.1590    6.3680 C   0  0  0  0  0  2  0  0  0  0  0  0
    4.0880   -5.5970    5.0140 C   0  0  0  0  0  2  0  0  0  0  0  0
    4.2950   -8.0390    4.5500 C   0  0  0  0  0  1  0  0  0  0  0  0
    4.1490   -6.6660    3.9560 C   0  0  0  0  0  2  0  0  0  0  0  0
  1  3  1  0  0  0  0
  2  1  2  0  0  0  0
  3  4  2  0  0  0  0
  4  5  1  0  0  0  0
  5 10  2  0  0  0  0
  5  6  1  0  0  0  0
  6  7  2  0  0  0  0
  7  8  1  0  0  0  0
  8 11  1  0  0  0  0
  9  8  2  0  0  0  0
 10  9  1  0  0  0  0
 11 12  1  0  0  0  0
 13  1  1  0  0  0  0
 13 14  1  0  0  0  0
 14 17  1  6  0  0  0
 14 15  1  0  0  0  0
 15 16  1  0  0  0  0
 18 17  1  0  0  0  0
 20 19  1  0  0  0  0
 20 18  1  0  0  0  0
M  END
>  <MODEL>
9

>  <REMARK>
 VINA RESULT:      -3.6     11.564     14.452
  Name = shuffle_control_ligand
  12 active torsions:
  status: ('A' for Active; 'I' for Inactive)
    1  A    between atoms: C_1  and  C_2
    2  A    between atoms: C_2  and  C_3
    3  A    between atoms: C_3  and  C_4
    4  A    between atoms: C_4  and  C_5
    5  A    between atoms: C_5  and  C_6
    6  A    between atoms: C_5  and  O_8
    7  A    between atoms: C_6  and  C_7
    8  A    between atoms: O_8  and  C_9
    9  A    between atoms: C_9  and  C_11
   10  A    between atoms: C_12  and  C_13
   11  A    between atoms: C_16  and  O_17
   12  A    between atoms: O_17  and  C_18
                            x       y       z     vdW  Elec       q    Type
                         _______ _______ _______ _____ _____    ______ ____

>  <TORSDO>
F 9

$$$$
