bg33_2_ligand
     RDKit          3D

 44 44  0  0  0  0  0  0  0  0999 V2000
   -4.2080   -1.3900    4.2474 C   0  0  0  0  0  0  0  0  0  0  0  0
   -4.9366   -0.4302    5.2050 C   0  0  0  0  0  0  0  0  0  0  0  0
   -4.1305    0.8306    5.3836 C   0  0  0  0  0  0  0  0  0  0  0  0
   -4.7901    1.8226    6.3566 C   0  0  0  0  0  0  0  0  0  0  0  0
   -3.8601    2.9521    6.6957 C   0  0  1  0  0  0  0  0  0  0  0  0
   -2.6040    2.3679    7.3103 C   0  0  0  0  0  0  0  0  0  0  0  0
   -2.8493    2.0231    8.8317 C   0  0  0  0  0  0  0  0  0  0  0  0
   -3.6112    3.7916    5.5231 O   0  0  0  0  0  0  0  0  0  0  0  0
   -4.6294    4.7030    5.1201 C   0  0  0  0  0  0  0  0  0  0  0  0
   -5.6427    4.7746    5.7792 O   0  0  0  0  0  0  0  0  0  0  0  0
   -4.5087    5.5235    3.8701 C   0  0  0  0  0  0  0  0  0  0  0  0
   -3.3384    5.7182    3.1824 C   0  0  0  0  0  0  0  0  0  0  0  0
   -3.3478    6.4386    1.8560 C   0  0  0  0  0  0  0  0  0  0  0  0
   -4.5346    6.6490    1.1834 C   0  0  0  0  0  0  0  0  0  0  0  0
   -4.4864    7.2982   -0.0474 C   0  0  0  0  0  0  0  0  0  0  0  0
   -3.3032    7.7383   -0.6250 C   0  0  0  0  0  0  0  0  0  0  0  0
   -3.2902    8.3538   -1.8725 O   0  0  0  0  0  0  0  0  0  0  0  0
   -4.2142    9.4386   -2.0302 C   0  0  0  0  0  0  0  0  0  0  0  0
   -2.1382    7.4922    0.0603 C   0  0  0  0  0  0  0  0  0  0  0  0
   -2.1495    6.8487    1.3050 C   0  0  0  0  0  0  0  0  0  0  0  0
   -3.7293   -0.8121    3.4431 H   0  0  0  0  0  0  0  0  0  0  0  0
   -3.4413   -1.9501    4.8028 H   0  0  0  0  0  0  0  0  0  0  0  0
   -4.9328   -2.0937    3.8119 H   0  0  0  0  0  0  0  0  0  0  0  0
   -5.9217   -0.1765    4.7866 H   0  0  0  0  0  0  0  0  0  0  0  0
   -5.0610   -0.9205    6.1818 H   0  0  0  0  0  0  0  0  0  0  0  0
   -3.1379    0.5616    5.7740 H   0  0  0  0  0  0  0  0  0  0  0  0
   -4.0614    1.3230    4.4025 H   0  0  0  0  0  0  0  0  0  0  0  0
   -5.6976    2.2331    5.8898 H   0  0  0  0  0  0  0  0  0  0  0  0
   -5.0389    1.2865    7.2844 H   0  0  0  0  0  0  0  0  0  0  0  0
   -4.3134    3.6256    7.4380 H   0  0  0  0  0  0  0  0  0  0  0  0
   -2.3282    1.4503    6.7699 H   0  0  0  0  0  0  0  0  0  0  0  0
   -1.7919    3.1062    7.2366 H   0  0  0  0  0  0  0  0  0  0  0  0
   -2.8027    2.9457    9.4290 H   0  0  0  0  0  0  0  0  0  0  0  0
   -3.8408    1.5610    8.9478 H   0  0  0  0  0  0  0  0  0  0  0  0
   -2.0754    1.3225    9.1784 H   0  0  0  0  0  0  0  0  0  0  0  0
   -5.4195    6.0007    3.4792 H   0  0  0  0  0  0  0  0  0  0  0  0
   -2.3898    5.3480    3.5986 H   0  0  0  0  0  0  0  0  0  0  0  0
   -5.4921    6.3131    1.6078 H   0  0  0  0  0  0  0  0  0  0  0  0
   -5.4294    7.4703   -0.5871 H   0  0  0  0  0  0  0  0  0  0  0  0
   -3.7010   10.2925   -2.4967 H   0  0  0  0  0  0  0  0  0  0  0  0
   -5.0497    9.1187   -2.6703 H   0  0  0  0  0  0  0  0  0  0  0  0
   -4.6008    9.7372   -1.0447 H   0  0  0  0  0  0  0  0  0  0  0  0
   -1.1787    7.8063   -0.3763 H   0  0  0  0  0  0  0  0  0  0  0  0
   -1.2062    6.6706    1.8420 H   0  0  0  0  0  0  0  0  0  0  0  0
  2  1  1  0
  3  2  1  0
  4  3  1  0
  5  4  1  0
  6  5  1  0
  7  6  1  0
  8  5  1  0
  9  8  1  0
 10  9  2  0
 11  9  1  0
 12 11  2  3
 13 12  1  0
 14 13  1  0
 15 14  2  0
 16 15  1  0
 17 16  1  0
 18 17  1  0
 19 16  2  0
 20 19  1  0
 20 13  2  0
  1 21  1  0
  1 22  1  0
  1 23  1  0
  2 24  1  0
  2 25  1  0
  3 26  1  0
  3 27  1  0
  4 28  1  0
  4 29  1  0
  5 30  1  1
  6 31  1  0
  6 32  1  0
  7 33  1  0
  7 34  1  0
  7 35  1  0
 11 36  1  0
 12 37  1  0
 14 38  1  0
 15 39  1  0
 18 40  1  0
 18 41  1  0
 18 42  1  0
 19 43  1  0
 20 44  1  0
M  END
$$$$
