bg33_2_ligand
 OpenBabel10092621143D

 20 20  0  0  1  0  0  0  0  0999 V2000
   -6.9730    1.5700    4.6840 C   0  0  0  0  0  0  0  0  0  0  0  0
   -6.5830    2.4920    5.3660 O   0  0  0  0  0  0  0  0  0  0  0  0
   -6.1860    0.2930    4.6600 C   0  0  0  0  0  3  0  0  0  0  0  0
   -6.6900   -0.9320    5.0150 C   0  0  0  0  0  3  0  0  0  0  0  0
   -5.8620   -2.1790    4.8180 C   0  0  0  0  0  0  0  0  0  0  0  0
   -4.6950   -2.3640    5.5310 C   0  0  0  0  0  3  0  0  0  0  0  0
   -3.9570   -3.5190    5.2950 C   0  0  0  0  0  3  0  0  0  0  0  0
   -4.3390   -4.4880    4.3770 C   0  0  0  0  0  0  0  0  0  0  0  0
   -5.4940   -4.2620    3.6670 C   0  0  0  0  0  3  0  0  0  0  0  0
   -6.2670   -3.1140    3.8850 C   0  0  0  0  0  3  0  0  0  0  0  0
   -3.5580   -5.6160    4.1430 O   0  0  0  0  0  0  0  0  0  0  0  0
   -2.2210   -5.5510    4.6560 C   0  0  0  0  0  1  0  0  0  0  0  0
   -8.1320    1.7550    3.8780 O   0  0  0  0  0  0  0  0  0  0  0  0
   -9.4320    1.8460    4.5470 C   0  0  2  0  0  3  0  0  0  0  0  0
  -10.3610    0.6890    4.2420 C   0  0  0  0  0  2  0  0  0  0  0  0
  -10.3200   -0.3690    5.4140 C   0  0  0  0  0  1  0  0  0  0  0  0
  -10.1320    3.1230    4.1830 C   0  0  0  0  0  2  0  0  0  0  0  0
   -9.5880    4.3080    4.9990 C   0  0  0  0  0  2  0  0  0  0  0  0
   -9.7850    5.8870    3.0760 C   0  0  0  0  0  1  0  0  0  0  0  0
   -8.8450    5.3070    4.1480 C   0  0  0  0  0  2  0  0  0  0  0  0
  1  2  2  0  0  0  0
  3  1  1  0  0  0  0
  3  4  2  0  0  0  0
  5  4  1  0  0  0  0
  5  6  1  0  0  0  0
  7  6  2  0  0  0  0
  8  7  1  0  0  0  0
  9 10  1  0  0  0  0
  9  8  2  0  0  0  0
 10  5  2  0  0  0  0
 11  8  1  0  0  0  0
 11 12  1  0  0  0  0
 13 14  1  0  0  0  0
 13  1  1  0  0  0  0
 14 17  1  6  0  0  0
 15 14  1  0  0  0  0
 15 16  1  0  0  0  0
 17 18  1  0  0  0  0
 19 20  1  0  0  0  0
 20 18  1  0  0  0  0
M  END
>  <MODEL>
1

>  <REMARK>
 VINA RESULT:      -3.3      0.000      0.000
  Name = bg33_2_ligand
  12 active torsions:
  status: ('A' for Active; 'I' for Inactive)
    1  A    between atoms: C_1  and  C_2
    2  A    between atoms: C_2  and  C_3
    3  A    between atoms: C_3  and  C_4
    4  A    between atoms: C_4  and  C_5
    5  A    between atoms: C_5  and  C_6
    6  A    between atoms: C_5  and  O_8
    7  A    between atoms: C_6  and  C_7
    8  A    between atoms: O_8  and  C_9
    9  A    between atoms: C_9  and  C_11
   10  A    between atoms: C_12  and  C_13
   11  A    between atoms: C_16  and  O_17
   12  A    between atoms: O_17  and  C_18
                            x       y       z     vdW  Elec       q    Type
                         _______ _______ _______ _____ _____    ______ ____

>  <TORSDO>
F 9

$$$$
bg33_2_ligand
 OpenBabel10092621143D

 20 20  0  0  1  0  0  0  0  0999 V2000
   -9.6090   -0.2690    7.1320 C   0  0  0  0  0  0  0  0  0  0  0  0
  -10.3130   -0.7330    8.0010 O   0  0  0  0  0  0  0  0  0  0  0  0
   -8.3860   -1.0240    6.7000 C   0  0  0  0  0  3  0  0  0  0  0  0
   -8.3360   -1.8550    5.6100 C   0  0  0  0  0  3  0  0  0  0  0  0
   -7.0220   -2.4540    5.1720 C   0  0  0  0  0  0  0  0  0  0  0  0
   -5.8380   -2.0370    5.7470 C   0  0  0  0  0  3  0  0  0  0  0  0
   -4.6520   -2.6050    5.2910 C   0  0  0  0  0  3  0  0  0  0  0  0
   -4.6070   -3.5640    4.2880 C   0  0  0  0  0  0  0  0  0  0  0  0
   -5.8010   -3.9390    3.7220 C   0  0  0  0  0  3  0  0  0  0  0  0
   -7.0160   -3.3950    4.1610 C   0  0  0  0  0  3  0  0  0  0  0  0
   -3.3990   -4.0850    3.8350 O   0  0  0  0  0  0  0  0  0  0  0  0
   -2.4450   -4.3990    4.8580 C   0  0  0  0  0  1  0  0  0  0  0  0
   -9.9330    1.0100    6.5960 O   0  0  0  0  0  0  0  0  0  0  0  0
  -10.7180    1.0630    5.3610 C   0  0  2  0  0  3  0  0  0  0  0  0
  -11.5250   -0.1910    5.0930 C   0  0  0  0  0  2  0  0  0  0  0  0
  -11.7390   -0.3820    3.5400 C   0  0  0  0  0  1  0  0  0  0  0  0
   -9.8320    1.3170    4.1750 C   0  0  0  0  0  2  0  0  0  0  0  0
   -8.5760    2.1090    4.5780 C   0  0  0  0  0  2  0  0  0  0  0  0
   -6.2140    1.6100    5.2150 C   0  0  0  0  0  1  0  0  0  0  0  0
   -7.3000    1.4370    4.1370 C   0  0  0  0  0  2  0  0  0  0  0  0
  1  2  2  0  0  0  0
  3  1  1  0  0  0  0
  4  3  2  0  0  0  0
  5  4  1  0  0  0  0
  5  6  1  0  0  0  0
  7  6  2  0  0  0  0
  8  7  1  0  0  0  0
  9 10  1  0  0  0  0
  9  8  2  0  0  0  0
 10  5  2  0  0  0  0
 11  8  1  0  0  0  0
 11 12  1  0  0  0  0
 13  1  1  0  0  0  0
 14 17  1  6  0  0  0
 14 13  1  0  0  0  0
 15 14  1  0  0  0  0
 16 15  1  0  0  0  0
 17 18  1  0  0  0  0
 20 18  1  0  0  0  0
 20 19  1  0  0  0  0
M  END
>  <MODEL>
2

>  <REMARK>
 VINA RESULT:      -3.2      1.997      2.803
  Name = bg33_2_ligand
  12 active torsions:
  status: ('A' for Active; 'I' for Inactive)
    1  A    between atoms: C_1  and  C_2
    2  A    between atoms: C_2  and  C_3
    3  A    between atoms: C_3  and  C_4
    4  A    between atoms: C_4  and  C_5
    5  A    between atoms: C_5  and  C_6
    6  A    between atoms: C_5  and  O_8
    7  A    between atoms: C_6  and  C_7
    8  A    between atoms: O_8  and  C_9
    9  A    between atoms: C_9  and  C_11
   10  A    between atoms: C_12  and  C_13
   11  A    between atoms: C_16  and  O_17
   12  A    between atoms: O_17  and  C_18
                            x       y       z     vdW  Elec       q    Type
                         _______ _______ _______ _____ _____    ______ ____

>  <TORSDO>
F 9

$$$$
bg33_2_ligand
 OpenBabel10092621143D

 20 20  0  0  1  0  0  0  0  0999 V2000
   -5.9680    5.9930   -1.6610 C   0  0  0  0  0  0  0  0  0  0  0  0
   -6.6570    5.4400   -2.4900 O   0  0  0  0  0  0  0  0  0  0  0  0
   -4.7000    5.3340   -1.2050 C   0  0  0  0  0  3  0  0  0  0  0  0
   -4.1460    5.5010    0.0390 C   0  0  0  0  0  3  0  0  0  0  0  0
   -2.9480    4.6810    0.4520 C   0  0  0  0  0  0  0  0  0  0  0  0
   -1.7810    4.7280   -0.2830 C   0  0  0  0  0  3  0  0  0  0  0  0
   -0.7140    3.9350    0.1270 C   0  0  0  0  0  3  0  0  0  0  0  0
   -0.7730    3.1000    1.2350 C   0  0  0  0  0  0  0  0  0  0  0  0
   -1.9570    3.0590    1.9300 C   0  0  0  0  0  3  0  0  0  0  0  0
   -3.0490    3.8510    1.5510 C   0  0  0  0  0  3  0  0  0  0  0  0
    0.3040    2.2950    1.5950 O   0  0  0  0  0  0  0  0  0  0  0  0
    0.3100    1.8560    2.9600 C   0  0  0  0  0  1  0  0  0  0  0  0
   -6.4210    7.2230   -1.1020 O   0  0  0  0  0  0  0  0  0  0  0  0
   -7.8500    7.3710   -0.8220 C   0  0  2  0  0  3  0  0  0  0  0  0
   -8.4780    8.5910   -1.4650 C   0  0  0  0  0  2  0  0  0  0  0  0
   -8.7940    8.3050   -2.9860 C   0  0  0  0  0  1  0  0  0  0  0  0
   -8.1010    7.4330    0.6570 C   0  0  0  0  0  2  0  0  0  0  0  0
   -9.5350    7.9010    0.9590 C   0  0  0  0  0  2  0  0  0  0  0  0
  -11.6820    7.5020    2.1690 C   0  0  0  0  0  1  0  0  0  0  0  0
  -10.2840    6.9410    1.8470 C   0  0  0  0  0  2  0  0  0  0  0  0
  1  3  1  0  0  0  0
  1 13  1  0  0  0  0
  2  1  2  0  0  0  0
  3  4  2  0  0  0  0
  4  5  1  0  0  0  0
  5 10  1  0  0  0  0
  6  7  1  0  0  0  0
  6  5  2  0  0  0  0
  7  8  2  0  0  0  0
  8 11  1  0  0  0  0
  8  9  1  0  0  0  0
 10  9  2  0  0  0  0
 11 12  1  0  0  0  0
 13 14  1  0  0  0  0
 14 15  1  6  0  0  0
 14 17  1  0  0  0  0
 16 15  1  0  0  0  0
 17 18  1  0  0  0  0
 18 20  1  0  0  0  0
 20 19  1  0  0  0  0
M  END
>  <MODEL>
3

>  <REMARK>
 VINA RESULT:      -3.2      6.776      8.171
  Name = bg33_2_ligand
  12 active torsions:
  status: ('A' for Active; 'I' for Inactive)
    1  A    between atoms: C_1  and  C_2
    2  A    between atoms: C_2  and  C_3
    3  A    between atoms: C_3  and  C_4
    4  A    between atoms: C_4  and  C_5
    5  A    between atoms: C_5  and  C_6
    6  A    between atoms: C_5  and  O_8
    7  A    between atoms: C_6  and  C_7
    8  A    between atoms: O_8  and  C_9
    9  A    between atoms: C_9  and  C_11
   10  A    between atoms: C_12  and  C_13
   11  A    between atoms: C_16  and  O_17
   12  A    between atoms: O_17  and  C_18
                            x       y       z     vdW  Elec       q    Type
                         _______ _______ _______ _____ _____    ______ ____

>  <TORSDO>
F 9

$$$$
bg33_2_ligand
 OpenBabel10092621143D

 20 20  0  0  1  0  0  0  0  0999 V2000
   -2.5870    5.3820   -0.9480 C   0  0  0  0  0  0  0  0  0  0  0  0
   -1.6380    4.9250   -1.5470 O   0  0  0  0  0  0  0  0  0  0  0  0
   -3.7660    5.8900   -1.7240 C   0  0  0  0  0  3  0  0  0  0  0  0
   -4.9500    5.2110   -1.8630 C   0  0  0  0  0  3  0  0  0  0  0  0
   -6.1270    5.8700   -2.5400 C   0  0  0  0  0  0  0  0  0  0  0  0
   -7.1500    6.4150   -1.7900 C   0  0  0  0  0  3  0  0  0  0  0  0
   -8.2240    6.9900   -2.4640 C   0  0  0  0  0  3  0  0  0  0  0  0
   -8.3110    7.0370   -3.8490 C   0  0  0  0  0  0  0  0  0  0  0  0
   -7.2880    6.4650   -4.5650 C   0  0  0  0  0  3  0  0  0  0  0  0
   -6.1870    5.8850   -3.9200 C   0  0  0  0  0  3  0  0  0  0  0  0
   -9.4170    7.5910   -4.4880 O   0  0  0  0  0  0  0  0  0  0  0  0
  -10.3840    6.6470   -4.9670 C   0  0  0  0  0  1  0  0  0  0  0  0
   -2.5210    5.4790    0.4710 O   0  0  0  0  0  0  0  0  0  0  0  0
   -3.6310    4.9320    1.2540 C   0  0  2  0  0  3  0  0  0  0  0  0
   -4.1940    5.8960    2.2770 C   0  0  0  0  0  2  0  0  0  0  0  0
   -5.1400    6.9490    1.5740 C   0  0  0  0  0  1  0  0  0  0  0  0
   -3.2150    3.6760    1.9650 C   0  0  0  0  0  2  0  0  0  0  0  0
   -1.7000    3.6610    2.2270 C   0  0  0  0  0  2  0  0  0  0  0  0
    0.1660    2.9280    0.7400 C   0  0  0  0  0  1  0  0  0  0  0  0
   -1.0160    2.4660    1.6110 C   0  0  0  0  0  2  0  0  0  0  0  0
  1 13  1  0  0  0  0
  2  1  2  0  0  0  0
  3  1  1  0  0  0  0
  4  3  2  0  0  0  0
  5  4  1  0  0  0  0
  5  6  1  0  0  0  0
  7  6  2  0  0  0  0
  8  7  1  0  0  0  0
  9 10  1  0  0  0  0
  9  8  2  0  0  0  0
 10  5  2  0  0  0  0
 11  8  1  0  0  0  0
 12 11  1  0  0  0  0
 13 14  1  0  0  0  0
 14 17  1  1  0  0  0
 14 15  1  0  0  0  0
 16 15  1  0  0  0  0
 17 18  1  0  0  0  0
 19 20  1  0  0  0  0
 20 18  1  0  0  0  0
M  END
>  <MODEL>
4

>  <REMARK>
 VINA RESULT:      -3.2      7.400     11.129
  Name = bg33_2_ligand
  12 active torsions:
  status: ('A' for Active; 'I' for Inactive)
    1  A    between atoms: C_1  and  C_2
    2  A    between atoms: C_2  and  C_3
    3  A    between atoms: C_3  and  C_4
    4  A    between atoms: C_4  and  C_5
    5  A    between atoms: C_5  and  C_6
    6  A    between atoms: C_5  and  O_8
    7  A    between atoms: C_6  and  C_7
    8  A    between atoms: O_8  and  C_9
    9  A    between atoms: C_9  and  C_11
   10  A    between atoms: C_12  and  C_13
   11  A    between atoms: C_16  and  O_17
   12  A    between atoms: O_17  and  C_18
                            x       y       z     vdW  Elec       q    Type
                         _______ _______ _______ _____ _____    ______ ____

>  <TORSDO>
F 9

$$$$
bg33_2_ligand
 OpenBabel10092621143D

 20 20  0  0  1  0  0  0  0  0999 V2000
   -5.9440    5.9970   -1.7620 C   0  0  0  0  0  0  0  0  0  0  0  0
   -6.6500    5.4930   -2.6080 O   0  0  0  0  0  0  0  0  0  0  0  0
   -4.8480    5.1820   -1.1420 C   0  0  0  0  0  3  0  0  0  0  0  0
   -3.8530    5.6980   -0.3510 C   0  0  0  0  0  3  0  0  0  0  0  0
   -2.8810    4.7760    0.3450 C   0  0  0  0  0  0  0  0  0  0  0  0
   -1.6080    4.5950   -0.1560 C   0  0  0  0  0  3  0  0  0  0  0  0
   -0.7600    3.7160    0.5110 C   0  0  0  0  0  3  0  0  0  0  0  0
   -1.1370    3.0150    1.6480 C   0  0  0  0  0  0  0  0  0  0  0  0
   -2.4190    3.2010    2.1060 C   0  0  0  0  0  3  0  0  0  0  0  0
   -3.2970    4.0850    1.4650 C   0  0  0  0  0  3  0  0  0  0  0  0
   -0.2720    2.1180    2.2690 O   0  0  0  0  0  0  0  0  0  0  0  0
    1.1140    2.4830    2.2370 C   0  0  0  0  0  1  0  0  0  0  0  0
   -6.2210    7.3300   -1.3420 O   0  0  0  0  0  0  0  0  0  0  0  0
   -6.9880    7.5200   -0.1090 C   0  0  2  0  0  3  0  0  0  0  0  0
   -8.4820    7.6400   -0.3290 C   0  0  0  0  0  2  0  0  0  0  0  0
   -9.2490    7.5100    1.0470 C   0  0  0  0  0  1  0  0  0  0  0  0
   -6.5190    8.7410    0.6290 C   0  0  0  0  0  2  0  0  0  0  0  0
   -5.4700    8.3780    1.6940 C   0  0  0  0  0  2  0  0  0  0  0  0
   -6.5570    7.2900    3.6600 C   0  0  0  0  0  1  0  0  0  0  0  0
   -5.7570    7.0590    2.3660 C   0  0  0  0  0  2  0  0  0  0  0  0
  1 13  1  0  0  0  0
  1  3  1  0  0  0  0
  2  1  2  0  0  0  0
  3  4  2  0  0  0  0
  4  5  1  0  0  0  0
  5 10  1  0  0  0  0
  6  5  2  0  0  0  0
  6  7  1  0  0  0  0
  7  8  2  0  0  0  0
  8  9  1  0  0  0  0
  8 11  1  0  0  0  0
 10  9  2  0  0  0  0
 12 11  1  0  0  0  0
 13 14  1  0  0  0  0
 14 15  1  6  0  0  0
 14 17  1  0  0  0  0
 15 16  1  0  0  0  0
 17 18  1  0  0  0  0
 18 20  1  0  0  0  0
 20 19  1  0  0  0  0
M  END
>  <MODEL>
5

>  <REMARK>
 VINA RESULT:      -3.2      6.900      8.058
  Name = bg33_2_ligand
  12 active torsions:
  status: ('A' for Active; 'I' for Inactive)
    1  A    between atoms: C_1  and  C_2
    2  A    between atoms: C_2  and  C_3
    3  A    between atoms: C_3  and  C_4
    4  A    between atoms: C_4  and  C_5
    5  A    between atoms: C_5  and  C_6
    6  A    between atoms: C_5  and  O_8
    7  A    between atoms: C_6  and  C_7
    8  A    between atoms: O_8  and  C_9
    9  A    between atoms: C_9  and  C_11
   10  A    between atoms: C_12  and  C_13
   11  A    between atoms: C_16  and  O_17
   12  A    between atoms: O_17  and  C_18
                            x       y       z     vdW  Elec       q    Type
                         _______ _______ _______ _____ _____    ______ ____

>  <TORSDO>
F 9

$$$$
bg33_2_ligand
 OpenBabel10092621143D

 20 20  0  0  1  0  0  0  0  0999 V2000
   -7.7520    1.8430    4.2950 C   0  0  0  0  0  0  0  0  0  0  0  0
   -8.8600    1.5770    3.8850 O   0  0  0  0  0  0  0  0  0  0  0  0
   -6.7330    0.7480    4.4130 C   0  0  0  0  0  3  0  0  0  0  0  0
   -6.8900   -0.3730    5.1880 C   0  0  0  0  0  3  0  0  0  0  0  0
   -5.8730   -1.4860    5.1270 C   0  0  0  0  0  0  0  0  0  0  0  0
   -6.0610   -2.5610    4.2810 C   0  0  0  0  0  3  0  0  0  0  0  0
   -5.1050   -3.5710    4.2800 C   0  0  0  0  0  3  0  0  0  0  0  0
   -3.9770   -3.5480    5.0890 C   0  0  0  0  0  0  0  0  0  0  0  0
   -3.8320   -2.4760    5.9360 C   0  0  0  0  0  3  0  0  0  0  0  0
   -4.7710   -1.4360    5.9580 C   0  0  0  0  0  3  0  0  0  0  0  0
   -3.0590   -4.5940    5.0850 O   0  0  0  0  0  0  0  0  0  0  0  0
   -1.7540   -4.2640    5.5790 C   0  0  0  0  0  1  0  0  0  0  0  0
   -7.4750    3.1770    4.7100 O   0  0  0  0  0  0  0  0  0  0  0  0
   -6.1230    3.4890    5.1790 C   0  0  2  0  0  3  0  0  0  0  0  0
   -5.9640    3.4170    6.6840 C   0  0  0  0  0  2  0  0  0  0  0  0
   -4.7360    2.4970    7.0600 C   0  0  0  0  0  1  0  0  0  0  0  0
   -5.7010    4.8560    4.7230 C   0  0  0  0  0  2  0  0  0  0  0  0
   -4.4420    4.7850    3.8420 C   0  0  0  0  0  2  0  0  0  0  0  0
   -3.1000    3.4610    2.2060 C   0  0  0  0  0  1  0  0  0  0  0  0
   -4.2080    3.4080    3.2740 C   0  0  0  0  0  2  0  0  0  0  0  0
  1  3  1  0  0  0  0
  1 13  1  0  0  0  0
  2  1  2  0  0  0  0
  3  4  2  0  0  0  0
  5  4  1  0  0  0  0
  5 10  1  0  0  0  0
  6  5  2  0  0  0  0
  7  6  1  0  0  0  0
  7  8  2  0  0  0  0
  8  9  1  0  0  0  0
  9 10  2  0  0  0  0
 11  8  1  0  0  0  0
 11 12  1  0  0  0  0
 13 14  1  0  0  0  0
 14 17  1  1  0  0  0
 14 15  1  0  0  0  0
 15 16  1  0  0  0  0
 18 17  1  0  0  0  0
 19 20  1  0  0  0  0
 20 18  1  0  0  0  0
M  END
>  <MODEL>
6

>  <REMARK>
 VINA RESULT:      -3.2      2.271      3.630
  Name = bg33_2_ligand
  12 active torsions:
  status: ('A' for Active; 'I' for Inactive)
    1  A    between atoms: C_1  and  C_2
    2  A    between atoms: C_2  and  C_3
    3  A    between atoms: C_3  and  C_4
    4  A    between atoms: C_4  and  C_5
    5  A    between atoms: C_5  and  C_6
    6  A    between atoms: C_5  and  O_8
    7  A    between atoms: C_6  and  C_7
    8  A    between atoms: O_8  and  C_9
    9  A    between atoms: C_9  and  C_11
   10  A    between atoms: C_12  and  C_13
   11  A    between atoms: C_16  and  O_17
   12  A    between atoms: O_17  and  C_18
                            x       y       z     vdW  Elec       q    Type
                         _______ _______ _______ _____ _____    ______ ____

>  <TORSDO>
F 9

$$$$
bg33_2_ligand
 OpenBabel10092621143D

 20 20  0  0  1  0  0  0  0  0999 V2000
   -0.9320    3.1690    1.9680 C   0  0  0  0  0  0  0  0  0  0  0  0
   -0.5180    4.3010    1.8510 O   0  0  0  0  0  0  0  0  0  0  0  0
    0.0020    2.0930    2.4390 C   0  0  0  0  0  3  0  0  0  0  0  0
    0.3070    1.8570    3.7550 C   0  0  0  0  0  3  0  0  0  0  0  0
    1.1430    0.6590    4.1370 C   0  0  0  0  0  0  0  0  0  0  0  0
    2.5180    0.6960    4.0080 C   0  0  0  0  0  3  0  0  0  0  0  0
    3.2390   -0.4430    4.3510 C   0  0  0  0  0  3  0  0  0  0  0  0
    2.6420   -1.6090    4.8110 C   0  0  0  0  0  0  0  0  0  0  0  0
    1.2720   -1.6190    4.9050 C   0  0  0  0  0  3  0  0  0  0  0  0
    0.5130   -0.4880    4.5760 C   0  0  0  0  0  3  0  0  0  0  0  0
    3.3950   -2.7400    5.1130 O   0  0  0  0  0  0  0  0  0  0  0  0
    4.6350   -2.4880    5.7870 C   0  0  0  0  0  1  0  0  0  0  0  0
   -2.2770    2.8860    1.5940 O   0  0  0  0  0  0  0  0  0  0  0  0
   -3.3550    3.4760    2.3900 C   0  0  2  0  0  3  0  0  0  0  0  0
   -3.7150    4.8910    1.9830 C   0  0  0  0  0  2  0  0  0  0  0  0
   -3.7730    5.0080    0.4090 C   0  0  0  0  0  1  0  0  0  0  0  0
   -3.0010    3.4800    3.8490 C   0  0  0  0  0  2  0  0  0  0  0  0
   -4.2620    3.4530    4.7280 C   0  0  0  0  0  2  0  0  0  0  0  0
   -6.6220    2.6820    4.4640 C   0  0  0  0  0  1  0  0  0  0  0  0
   -5.1410    2.2610    4.4470 C   0  0  0  0  0  2  0  0  0  0  0  0
  1  3  1  0  0  0  0
  2  1  2  0  0  0  0
  3  4  2  0  0  0  0
  4  5  1  0  0  0  0
  5 10  1  0  0  0  0
  6  5  2  0  0  0  0
  6  7  1  0  0  0  0
  7  8  2  0  0  0  0
  8  9  1  0  0  0  0
  8 11  1  0  0  0  0
 10  9  2  0  0  0  0
 11 12  1  0  0  0  0
 13  1  1  0  0  0  0
 13 14  1  0  0  0  0
 14 15  1  6  0  0  0
 14 17  1  0  0  0  0
 16 15  1  0  0  0  0
 17 18  1  0  0  0  0
 20 19  1  0  0  0  0
 20 18  1  0  0  0  0
M  END
>  <MODEL>
7

>  <REMARK>
 VINA RESULT:      -3.2      6.006      7.216
  Name = bg33_2_ligand
  12 active torsions:
  status: ('A' for Active; 'I' for Inactive)
    1  A    between atoms: C_1  and  C_2
    2  A    between atoms: C_2  and  C_3
    3  A    between atoms: C_3  and  C_4
    4  A    between atoms: C_4  and  C_5
    5  A    between atoms: C_5  and  C_6
    6  A    between atoms: C_5  and  O_8
    7  A    between atoms: C_6  and  C_7
    8  A    between atoms: O_8  and  C_9
    9  A    between atoms: C_9  and  C_11
   10  A    between atoms: C_12  and  C_13
   11  A    between atoms: C_16  and  O_17
   12  A    between atoms: O_17  and  C_18
                            x       y       z     vdW  Elec       q    Type
                         _______ _______ _______ _____ _____    ______ ____

>  <TORSDO>
F 9

$$$$
bg33_2_ligand
 OpenBabel10092621143D

 20 20  0  0  1  0  0  0  0  0999 V2000
   -6.9660    1.5880    4.8770 C   0  0  0  0  0  0  0  0  0  0  0  0
   -6.3930    2.6410    4.7010 O   0  0  0  0  0  0  0  0  0  0  0  0
   -6.2360    0.3040    4.6150 C   0  0  0  0  0  3  0  0  0  0  0  0
   -6.2550   -0.7810    5.4540 C   0  0  0  0  0  3  0  0  0  0  0  0
   -5.6080   -2.0780    5.0320 C   0  0  0  0  0  0  0  0  0  0  0  0
   -6.2270   -2.9030    4.1150 C   0  0  0  0  0  3  0  0  0  0  0  0
   -5.5990   -4.0980    3.7780 C   0  0  0  0  0  3  0  0  0  0  0  0
   -4.3850   -4.4960    4.3230 C   0  0  0  0  0  0  0  0  0  0  0  0
   -3.8080   -3.6630    5.2490 C   0  0  0  0  0  3  0  0  0  0  0  0
   -4.4070   -2.4470    5.6070 C   0  0  0  0  0  3  0  0  0  0  0  0
   -3.8030   -5.7140    3.9860 O   0  0  0  0  0  0  0  0  0  0  0  0
   -2.4080   -5.8320    4.2930 C   0  0  0  0  0  1  0  0  0  0  0  0
   -8.3360    1.6090    5.2670 O   0  0  0  0  0  0  0  0  0  0  0  0
   -9.3480    1.8060    4.2260 C   0  0  2  0  0  3  0  0  0  0  0  0
  -10.0250    3.1600    4.2780 C   0  0  0  0  0  2  0  0  0  0  0  0
   -9.8280    3.8160    5.7010 C   0  0  0  0  0  1  0  0  0  0  0  0
  -10.4060    0.7440    4.3030 C   0  0  0  0  0  2  0  0  0  0  0  0
  -10.1820   -0.1800    5.5130 C   0  0  0  0  0  2  0  0  0  0  0  0
   -9.4110   -2.4120    6.3210 C   0  0  0  0  0  1  0  0  0  0  0  0
   -9.9240   -1.6100    5.1110 C   0  0  0  0  0  2  0  0  0  0  0  0
  1 13  1  0  0  0  0
  2  1  2  0  0  0  0
  3  1  1  0  0  0  0
  3  4  2  0  0  0  0
  5  4  1  0  0  0  0
  5 10  1  0  0  0  0
  6  5  2  0  0  0  0
  7  6  1  0  0  0  0
  7  8  2  0  0  0  0
  8  9  1  0  0  0  0
  9 10  2  0  0  0  0
 11 12  1  0  0  0  0
 11  8  1  0  0  0  0
 14 15  1  1  0  0  0
 14 17  1  0  0  0  0
 14 13  1  0  0  0  0
 15 16  1  0  0  0  0
 17 18  1  0  0  0  0
 20 18  1  0  0  0  0
 20 19  1  0  0  0  0
M  END
>  <MODEL>
8

>  <REMARK>
 VINA RESULT:      -3.2      0.981      3.210
  Name = bg33_2_ligand
  12 active torsions:
  status: ('A' for Active; 'I' for Inactive)
    1  A    between atoms: C_1  and  C_2
    2  A    between atoms: C_2  and  C_3
    3  A    between atoms: C_3  and  C_4
    4  A    between atoms: C_4  and  C_5
    5  A    between atoms: C_5  and  C_6
    6  A    between atoms: C_5  and  O_8
    7  A    between atoms: C_6  and  C_7
    8  A    between atoms: O_8  and  C_9
    9  A    between atoms: C_9  and  C_11
   10  A    between atoms: C_12  and  C_13
   11  A    between atoms: C_16  and  O_17
   12  A    between atoms: O_17  and  C_18
                            x       y       z     vdW  Elec       q    Type
                         _______ _______ _______ _____ _____    ______ ____

>  <TORSDO>
F 9

$$$$
bg33_2_ligand
 OpenBabel10092621143D

 20 20  0  0  1  0  0  0  0  0999 V2000
    1.4290   -3.6570    8.2220 C   0  0  0  0  0  0  0  0  0  0  0  0
    1.5270   -4.2960    9.2460 O   0  0  0  0  0  0  0  0  0  0  0  0
    0.2180   -3.8450    7.3560 C   0  0  0  0  0  3  0  0  0  0  0  0
   -0.8740   -3.0140    7.3630 C   0  0  0  0  0  3  0  0  0  0  0  0
   -1.9780   -3.2040    6.3510 C   0  0  0  0  0  0  0  0  0  0  0  0
   -3.1580   -2.4960    6.4630 C   0  0  0  0  0  3  0  0  0  0  0  0
   -4.1530   -2.7260    5.5170 C   0  0  0  0  0  3  0  0  0  0  0  0
   -4.0120   -3.6320    4.4740 C   0  0  0  0  0  0  0  0  0  0  0  0
   -2.8350   -4.3360    4.4060 C   0  0  0  0  0  3  0  0  0  0  0  0
   -1.8080   -4.1240    5.3360 C   0  0  0  0  0  3  0  0  0  0  0  0
   -5.0420   -3.8590    3.5670 O   0  0  0  0  0  0  0  0  0  0  0  0
   -6.3010   -3.2630    3.9070 C   0  0  0  0  0  1  0  0  0  0  0  0
    2.4980   -2.7950    7.8450 O   0  0  0  0  0  0  0  0  0  0  0  0
    2.9810   -2.8560    6.4640 C   0  0  2  0  0  3  0  0  0  0  0  0
    4.3230   -3.5430    6.3130 C   0  0  0  0  0  2  0  0  0  0  0  0
    4.1180   -5.0790    6.0040 C   0  0  0  0  0  1  0  0  0  0  0  0
    3.0850   -1.4790    5.8730 C   0  0  0  0  0  2  0  0  0  0  0  0
    2.3290   -1.3880    4.5360 C   0  0  0  0  0  2  0  0  0  0  0  0
    0.5680   -0.0310    5.6710 C   0  0  0  0  0  1  0  0  0  0  0  0
    0.8430   -1.2110    4.7210 C   0  0  0  0  0  2  0  0  0  0  0  0
  1  2  2  0  0  0  0
  3  4  2  0  0  0  0
  3  1  1  0  0  0  0
  5  6  1  0  0  0  0
  5  4  1  0  0  0  0
  7  6  2  0  0  0  0
  8  7  1  0  0  0  0
  9  8  2  0  0  0  0
  9 10  1  0  0  0  0
 10  5  2  0  0  0  0
 11 12  1  0  0  0  0
 11  8  1  0  0  0  0
 13  1  1  0  0  0  0
 14 17  1  1  0  0  0
 14 13  1  0  0  0  0
 15 14  1  0  0  0  0
 16 15  1  0  0  0  0
 18 20  1  0  0  0  0
 18 17  1  0  0  0  0
 20 19  1  0  0  0  0
M  END
>  <MODEL>
9

>  <REMARK>
 VINA RESULT:      -3.2      5.204      9.710
  Name = bg33_2_ligand
  12 active torsions:
  status: ('A' for Active; 'I' for Inactive)
    1  A    between atoms: C_1  and  C_2
    2  A    between atoms: C_2  and  C_3
    3  A    between atoms: C_3  and  C_4
    4  A    between atoms: C_4  and  C_5
    5  A    between atoms: C_5  and  C_6
    6  A    between atoms: C_5  and  O_8
    7  A    between atoms: C_6  and  C_7
    8  A    between atoms: O_8  and  C_9
    9  A    between atoms: C_9  and  C_11
   10  A    between atoms: C_12  and  C_13
   11  A    between atoms: C_16  and  O_17
   12  A    between atoms: O_17  and  C_18
                            x       y       z     vdW  Elec       q    Type
                         _______ _______ _______ _____ _____    ______ ____

>  <TORSDO>
F 9

$$$$
