ox1_esm1_f8_ligand
     RDKit          3D

 29 30  0  0  0  0  0  0  0  0999 V2000
    7.0544   -6.3582   -4.0084 C   0  0  0  0  0  0  0  0  0  0  0  0
    6.7179   -5.1187   -3.3775 O   0  0  0  0  0  0  0  0  0  0  0  0
    7.0234   -3.9252   -3.9634 C   0  0  0  0  0  0  0  0  0  0  0  0
    6.6762   -2.7552   -3.2878 C   0  0  0  0  0  0  0  0  0  0  0  0
    6.9573   -1.5167   -3.8471 C   0  0  0  0  0  0  0  0  0  0  0  0
    7.5723   -1.4191   -5.0832 C   0  0  0  0  0  0  0  0  0  0  0  0
    7.8579   -0.0771   -5.6862 C   0  0  0  0  0  0  0  0  0  0  0  0
    8.5515   -0.0070   -6.6974 O   0  0  0  0  0  0  0  0  0  0  0  0
    7.3316    1.1722   -5.0601 C   0  0  0  0  0  0  0  0  0  0  0  0
    8.1649    2.1560   -4.6683 C   0  0  0  0  0  0  0  0  0  0  0  0
    7.7476    3.3532   -4.1155 C   0  0  0  0  0  0  0  0  0  0  0  0
    6.4038    3.5527   -3.9103 C   0  0  0  0  0  0  0  0  0  0  0  0
    5.5121    2.5582   -4.2862 C   0  0  0  0  0  0  0  0  0  0  0  0
    5.9855    1.3752   -4.8540 C   0  0  0  0  0  0  0  0  0  0  0  0
    7.9337   -2.5965   -5.7702 C   0  0  0  0  0  0  0  0  0  0  0  0
    8.5567   -2.5024   -6.9808 O   0  0  0  0  0  0  0  0  0  0  0  0
    7.6512   -3.8346   -5.1955 C   0  0  0  0  0  0  0  0  0  0  0  0
    6.8502   -6.2879   -5.0869 H   0  0  0  0  0  0  0  0  0  0  0  0
    8.1218   -6.5721   -3.8505 H   0  0  0  0  0  0  0  0  0  0  0  0
    6.4498   -7.1673   -3.5727 H   0  0  0  0  0  0  0  0  0  0  0  0
    6.1781   -2.8146   -2.3088 H   0  0  0  0  0  0  0  0  0  0  0  0
    6.6880   -0.6006   -3.3009 H   0  0  0  0  0  0  0  0  0  0  0  0
    9.2458    1.9968   -4.7963 H   0  0  0  0  0  0  0  0  0  0  0  0
    8.4775    4.1307   -3.8455 H   0  0  0  0  0  0  0  0  0  0  0  0
    6.0405    4.4859   -3.4552 H   0  0  0  0  0  0  0  0  0  0  0  0
    4.4319    2.7025   -4.1366 H   0  0  0  0  0  0  0  0  0  0  0  0
    5.2705    0.5904   -5.1423 H   0  0  0  0  0  0  0  0  0  0  0  0
    8.8139   -3.3237   -7.4701 H   0  0  0  0  0  0  0  0  0  0  0  0
    7.9313   -4.7550   -5.7288 H   0  0  0  0  0  0  0  0  0  0  0  0
  2  1  1  0
  3  2  1  0
  4  3  1  0
  5  4  2  0
  6  5  1  0
  7  6  1  0
  8  7  2  0
  9  7  1  0
 10  9  2  0
 11 10  1  0
 12 11  2  0
 13 12  1  0
 14 13  2  0
 14  9  1  0
 15  6  2  0
 16 15  1  0
 17 15  1  0
 17  3  2  0
  1 18  1  0
  1 19  1  0
  1 20  1  0
  4 21  1  0
  5 22  1  0
 10 23  1  0
 11 24  1  0
 12 25  1  0
 13 26  1  0
 14 27  1  0
 16 28  1  0
 17 29  1  0
M  END
$$$$
