ox1_esm1_f8_ligand
 OpenBabel10092621183D

 18 19  0  0  0  0  0  0  0  0999 V2000
    1.4460   -9.5820  -10.2250 C   0  0  0  0  0  0  0  0  0  0  0  0
    1.6030  -10.1660  -11.4810 C   0  0  0  0  0  3  0  0  0  0  0  0
    0.9100   -9.6660  -12.5740 C   0  0  0  0  0  3  0  0  0  0  0  0
    0.0650   -8.5780  -12.4430 C   0  0  0  0  0  0  0  0  0  0  0  0
   -0.1060   -7.9860  -11.1750 C   0  0  0  0  0  0  0  0  0  0  0  0
    0.5920   -8.4990  -10.0820 C   0  0  0  0  0  3  0  0  0  0  0  0
    2.4690  -11.4970   -9.1260 C   0  0  0  0  0  1  0  0  0  0  0  0
    2.1560  -10.1020   -9.1820 O   0  0  0  0  0  0  0  0  0  0  0  0
   -0.6680   -8.0360  -13.6320 C   0  0  0  0  0  0  0  0  0  0  0  0
   -1.4960   -8.7420  -14.2030 O   0  0  0  0  0  0  0  0  0  0  0  0
   -0.3870   -6.6620  -14.1450 C   0  0  0  0  0  0  0  0  0  0  0  0
   -1.3540   -5.9280  -14.7290 C   0  0  0  0  0  3  0  0  0  0  0  0
   -1.1760   -4.6380  -15.1940 C   0  0  0  0  0  3  0  0  0  0  0  0
    0.0690   -4.0660  -15.0960 C   0  0  0  0  0  3  0  0  0  0  0  0
    1.0980   -4.7940  -14.5140 C   0  0  0  0  0  3  0  0  0  0  0  0
    0.8600   -6.0870  -14.0470 C   0  0  0  0  0  3  0  0  0  0  0  0
   -0.9530   -6.9240  -11.0390 O   0  0  0  0  0  0  0  0  0  0  0  0
   -0.9840   -6.2230  -11.7380 H   0  0  0  0  0  0  0  0  0  0  0  0
  1  6  1  0  0  0  0
  1  8  1  0  0  0  0
  2  1  2  0  0  0  0
  3  4  2  0  0  0  0
  3  2  1  0  0  0  0
  4  5  1  0  0  0  0
  5 17  1  0  0  0  0
  5  6  2  0  0  0  0
  8  7  1  0  0  0  0
  9  4  1  0  0  0  0
 10  9  2  0  0  0  0
 11 16  1  0  0  0  0
 11  9  1  0  0  0  0
 12 11  2  0  0  0  0
 13 14  2  0  0  0  0
 13 12  1  0  0  0  0
 14 15  1  0  0  0  0
 15 16  2  0  0  0  0
 18 17  1  0  0  0  0
M  END
>  <MODEL>
1

>  <REMARK>
 VINA RESULT:      -4.2      0.000      0.000
  Name = ox1_esm1_f8_ligand
  5 active torsions:
  status: ('A' for Active; 'I' for Inactive)
    1  A    between atoms: C_1  and  O_2
    2  A    between atoms: O_2  and  C_3
    3  A    between atoms: C_6  and  C_7
    4  A    between atoms: C_7  and  C_9
    5  A    between atoms: C_15  and  O_16
                            x       y       z     vdW  Elec       q    Type
                         _______ _______ _______ _____ _____    ______ ____

>  <TORSDO>
F 4

$$$$
ox1_esm1_f8_ligand
 OpenBabel10092621183D

 18 19  0  0  0  0  0  0  0  0999 V2000
    2.5560   -2.1260   -6.7540 C   0  0  0  0  0  0  0  0  0  0  0  0
    2.6280   -0.7680   -6.4410 C   0  0  0  0  0  3  0  0  0  0  0  0
    3.6720   -0.2840   -5.6670 C   0  0  0  0  0  3  0  0  0  0  0  0
    4.6640   -1.1310   -5.2040 C   0  0  0  0  0  0  0  0  0  0  0  0
    4.5970   -2.5060   -5.5080 C   0  0  0  0  0  0  0  0  0  0  0  0
    3.5400   -2.9820   -6.2830 C   0  0  0  0  0  3  0  0  0  0  0  0
    0.3030   -1.7990   -7.6120 C   0  0  0  0  0  1  0  0  0  0  0  0
    1.5150   -2.5530   -7.5260 O   0  0  0  0  0  0  0  0  0  0  0  0
    5.7970   -0.5970   -4.3810 C   0  0  0  0  0  0  0  0  0  0  0  0
    6.9170   -0.5180   -4.8780 O   0  0  0  0  0  0  0  0  0  0  0  0
    5.5850   -0.1840   -2.9620 C   0  0  0  0  0  0  0  0  0  0  0  0
    5.9000   -1.0110   -1.9450 C   0  0  0  0  0  3  0  0  0  0  0  0
    5.7650   -0.6840   -0.6080 C   0  0  0  0  0  3  0  0  0  0  0  0
    5.2430    0.5440   -0.2770 C   0  0  0  0  0  3  0  0  0  0  0  0
    4.8910    1.4200   -1.2950 C   0  0  0  0  0  3  0  0  0  0  0  0
    5.0630    1.0450   -2.6280 C   0  0  0  0  0  3  0  0  0  0  0  0
    5.5650   -3.3460   -5.0370 O   0  0  0  0  0  0  0  0  0  0  0  0
    6.2400   -3.0120   -4.3940 H   0  0  0  0  0  0  0  0  0  0  0  0
  1  2  2  0  0  0  0
  1  6  1  0  0  0  0
  2  3  1  0  0  0  0
  3  4  2  0  0  0  0
  4  9  1  0  0  0  0
  5  4  1  0  0  0  0
  5 17  1  0  0  0  0
  6  5  2  0  0  0  0
  7  8  1  0  0  0  0
  8  1  1  0  0  0  0
  9 11  1  0  0  0  0
 10  9  2  0  0  0  0
 11 16  2  0  0  0  0
 11 12  1  0  0  0  0
 12 13  2  0  0  0  0
 13 14  1  0  0  0  0
 15 14  2  0  0  0  0
 16 15  1  0  0  0  0
 17 18  1  0  0  0  0
M  END
>  <MODEL>
2

>  <REMARK>
 VINA RESULT:      -4.1     10.576     12.528
  Name = ox1_esm1_f8_ligand
  5 active torsions:
  status: ('A' for Active; 'I' for Inactive)
    1  A    between atoms: C_1  and  O_2
    2  A    between atoms: O_2  and  C_3
    3  A    between atoms: C_6  and  C_7
    4  A    between atoms: C_7  and  C_9
    5  A    between atoms: C_15  and  O_16
                            x       y       z     vdW  Elec       q    Type
                         _______ _______ _______ _____ _____    ______ ____

>  <TORSDO>
F 4

$$$$
ox1_esm1_f8_ligand
 OpenBabel10092621183D

 18 19  0  0  0  0  0  0  0  0999 V2000
    8.1260    0.3690    0.4970 C   0  0  0  0  0  0  0  0  0  0  0  0
    6.8030    0.0010    0.7400 C   0  0  0  0  0  3  0  0  0  0  0  0
    5.9860   -0.3980   -0.3080 C   0  0  0  0  0  3  0  0  0  0  0  0
    6.4690   -0.4510   -1.6040 C   0  0  0  0  0  0  0  0  0  0  0  0
    7.8030   -0.0730   -1.8610 C   0  0  0  0  0  0  0  0  0  0  0  0
    8.6130    0.3320   -0.8010 C   0  0  0  0  0  3  0  0  0  0  0  0
    8.3460    0.8060    2.8810 C   0  0  0  0  0  1  0  0  0  0  0  0
    8.8930    0.7460    1.5610 O   0  0  0  0  0  0  0  0  0  0  0  0
    5.5830   -0.8980   -2.7280 C   0  0  0  0  0  0  0  0  0  0  0  0
    5.7090   -2.0330   -3.1780 O   0  0  0  0  0  0  0  0  0  0  0  0
    4.5710    0.0260   -3.3200 C   0  0  0  0  0  0  0  0  0  0  0  0
    4.1930   -0.0920   -4.6080 C   0  0  0  0  0  3  0  0  0  0  0  0
    3.2370    0.7030   -5.2130 C   0  0  0  0  0  3  0  0  0  0  0  0
    2.6530    1.7080   -4.4790 C   0  0  0  0  0  3  0  0  0  0  0  0
    3.0250    1.8740   -3.1520 C   0  0  0  0  0  3  0  0  0  0  0  0
    3.9840    1.0330   -2.5870 C   0  0  0  0  0  3  0  0  0  0  0  0
    8.2750   -0.1060   -3.1410 O   0  0  0  0  0  0  0  0  0  0  0  0
    8.0290   -0.8550   -3.7400 H   0  0  0  0  0  0  0  0  0  0  0  0
  1  2  1  0  0  0  0
  1  8  1  0  0  0  0
  3  2  2  0  0  0  0
  4  3  1  0  0  0  0
  5  4  2  0  0  0  0
  5  6  1  0  0  0  0
  6  1  2  0  0  0  0
  8  7  1  0  0  0  0
  9  4  1  0  0  0  0
 10  9  2  0  0  0  0
 11  9  1  0  0  0  0
 11 16  1  0  0  0  0
 12 11  2  0  0  0  0
 13 12  1  0  0  0  0
 13 14  2  0  0  0  0
 14 15  1  0  0  0  0
 15 16  2  0  0  0  0
 17  5  1  0  0  0  0
 18 17  1  0  0  0  0
M  END
>  <MODEL>
3

>  <REMARK>
 VINA RESULT:      -3.9     13.497     14.790
  Name = ox1_esm1_f8_ligand
  5 active torsions:
  status: ('A' for Active; 'I' for Inactive)
    1  A    between atoms: C_1  and  O_2
    2  A    between atoms: O_2  and  C_3
    3  A    between atoms: C_6  and  C_7
    4  A    between atoms: C_7  and  C_9
    5  A    between atoms: C_15  and  O_16
                            x       y       z     vdW  Elec       q    Type
                         _______ _______ _______ _____ _____    ______ ____

>  <TORSDO>
F 4

$$$$
ox1_esm1_f8_ligand
 OpenBabel10092621183D

 18 19  0  0  0  0  0  0  0  0999 V2000
    0.9060   -3.9240  -15.0090 C   0  0  0  0  0  0  0  0  0  0  0  0
    1.6890   -4.3540  -13.9380 C   0  0  0  0  0  3  0  0  0  0  0  0
    1.2620   -5.4030  -13.1370 C   0  0  0  0  0  3  0  0  0  0  0  0
    0.0640   -6.0470  -13.3910 C   0  0  0  0  0  0  0  0  0  0  0  0
   -0.7390   -5.6150  -14.4660 C   0  0  0  0  0  0  0  0  0  0  0  0
   -0.3020   -4.5560  -15.2610 C   0  0  0  0  0  3  0  0  0  0  0  0
    1.1610   -1.5330  -15.3860 C   0  0  0  0  0  1  0  0  0  0  0  0
    1.3720   -2.8940  -15.7730 O   0  0  0  0  0  0  0  0  0  0  0  0
   -0.3820   -7.1900  -12.5290 C   0  0  0  0  0  0  0  0  0  0  0  0
   -1.1460   -6.9750  -11.5920 O   0  0  0  0  0  0  0  0  0  0  0  0
    0.1090   -8.5770  -12.7820 C   0  0  0  0  0  0  0  0  0  0  0  0
    0.8650   -9.2220  -11.8710 C   0  0  0  0  0  3  0  0  0  0  0  0
    1.3240  -10.5180  -12.0200 C   0  0  0  0  0  3  0  0  0  0  0  0
    1.0340  -11.1920  -13.1820 C   0  0  0  0  0  3  0  0  0  0  0  0
    0.2700  -10.5580  -14.1530 C   0  0  0  0  0  3  0  0  0  0  0  0
   -0.1810   -9.2550  -13.9440 C   0  0  0  0  0  3  0  0  0  0  0  0
   -1.9300   -6.2370  -14.7070 O   0  0  0  0  0  0  0  0  0  0  0  0
   -2.0730   -6.7180  -15.5610 H   0  0  0  0  0  0  0  0  0  0  0  0
  1  2  1  0  0  0  0
  2  3  2  0  0  0  0
  4  3  1  0  0  0  0
  4  9  1  0  0  0  0
  5  4  2  0  0  0  0
  6  1  2  0  0  0  0
  6  5  1  0  0  0  0
  8  7  1  0  0  0  0
  8  1  1  0  0  0  0
  9 10  2  0  0  0  0
 11  9  1  0  0  0  0
 11 12  1  0  0  0  0
 13 12  2  0  0  0  0
 14 13  1  0  0  0  0
 15 16  1  0  0  0  0
 15 14  2  0  0  0  0
 16 11  2  0  0  0  0
 17  5  1  0  0  0  0
 18 17  1  0  0  0  0
M  END
>  <MODEL>
4

>  <REMARK>
 VINA RESULT:      -3.8      2.107      6.065
  Name = ox1_esm1_f8_ligand
  5 active torsions:
  status: ('A' for Active; 'I' for Inactive)
    1  A    between atoms: C_1  and  O_2
    2  A    between atoms: O_2  and  C_3
    3  A    between atoms: C_6  and  C_7
    4  A    between atoms: C_7  and  C_9
    5  A    between atoms: C_15  and  O_16
                            x       y       z     vdW  Elec       q    Type
                         _______ _______ _______ _____ _____    ______ ____

>  <TORSDO>
F 4

$$$$
ox1_esm1_f8_ligand
 OpenBabel10092621183D

 18 19  0  0  0  0  0  0  0  0999 V2000
    5.1110   -1.5790   -4.8590 C   0  0  0  0  0  0  0  0  0  0  0  0
    4.4290   -0.5810   -5.5540 C   0  0  0  0  0  3  0  0  0  0  0  0
    3.5180   -0.9180   -6.5450 C   0  0  0  0  0  3  0  0  0  0  0  0
    3.2610   -2.2430   -6.8530 C   0  0  0  0  0  0  0  0  0  0  0  0
    3.9520   -3.2590   -6.1620 C   0  0  0  0  0  0  0  0  0  0  0  0
    4.8690   -2.9090   -5.1710 C   0  0  0  0  0  3  0  0  0  0  0  0
    5.5890   -1.1260   -2.5170 C   0  0  0  0  0  1  0  0  0  0  0  0
    5.9900   -1.1990   -3.8880 O   0  0  0  0  0  0  0  0  0  0  0  0
    2.2640   -2.5970   -7.9150 C   0  0  0  0  0  0  0  0  0  0  0  0
    2.5880   -3.3760   -8.8080 O   0  0  0  0  0  0  0  0  0  0  0  0
    0.8970   -1.9980   -7.9120 C   0  0  0  0  0  0  0  0  0  0  0  0
    0.4180   -1.3570   -8.9960 C   0  0  0  0  0  3  0  0  0  0  0  0
   -0.8490   -0.8100   -9.0790 C   0  0  0  0  0  3  0  0  0  0  0  0
   -1.6730   -0.8830   -7.9810 C   0  0  0  0  0  3  0  0  0  0  0  0
   -1.2130   -1.5230   -6.8380 C   0  0  0  0  0  3  0  0  0  0  0  0
    0.0700   -2.0710   -6.8140 C   0  0  0  0  0  3  0  0  0  0  0  0
    3.7140   -4.5660   -6.4760 O   0  0  0  0  0  0  0  0  0  0  0  0
    3.0640   -5.0920   -5.9450 H   0  0  0  0  0  0  0  0  0  0  0  0
  1  8  1  0  0  0  0
  2  1  2  0  0  0  0
  3  2  1  0  0  0  0
  4  3  2  0  0  0  0
  4  5  1  0  0  0  0
  5  6  2  0  0  0  0
  6  1  1  0  0  0  0
  8  7  1  0  0  0  0
  9 11  1  0  0  0  0
  9  4  1  0  0  0  0
 10  9  2  0  0  0  0
 11 16  1  0  0  0  0
 12 11  2  0  0  0  0
 13 12  1  0  0  0  0
 13 14  2  0  0  0  0
 14 15  1  0  0  0  0
 15 16  2  0  0  0  0
 17  5  1  0  0  0  0
 17 18  1  0  0  0  0
M  END
>  <MODEL>
5

>  <REMARK>
 VINA RESULT:      -3.8      8.198      9.190
  Name = ox1_esm1_f8_ligand
  5 active torsions:
  status: ('A' for Active; 'I' for Inactive)
    1  A    between atoms: C_1  and  O_2
    2  A    between atoms: O_2  and  C_3
    3  A    between atoms: C_6  and  C_7
    4  A    between atoms: C_7  and  C_9
    5  A    between atoms: C_15  and  O_16
                            x       y       z     vdW  Elec       q    Type
                         _______ _______ _______ _____ _____    ______ ____

>  <TORSDO>
F 4

$$$$
ox1_esm1_f8_ligand
 OpenBabel10092621183D

 18 19  0  0  0  0  0  0  0  0999 V2000
    4.4730    1.4920   -1.4900 C   0  0  0  0  0  0  0  0  0  0  0  0
    3.5910    1.3260   -2.5570 C   0  0  0  0  0  3  0  0  0  0  0  0
    3.9590    0.5610   -3.6540 C   0  0  0  0  0  3  0  0  0  0  0  0
    5.1960   -0.0580   -3.7060 C   0  0  0  0  0  0  0  0  0  0  0  0
    6.0980    0.1100   -2.6350 C   0  0  0  0  0  0  0  0  0  0  0  0
    5.7190    0.8850   -1.5400 C   0  0  0  0  0  3  0  0  0  0  0  0
    4.8730    3.3080    0.0800 C   0  0  0  0  0  1  0  0  0  0  0  0
    4.0620    2.2460   -0.4290 O   0  0  0  0  0  0  0  0  0  0  0  0
    5.5790   -0.8950   -4.8890 C   0  0  0  0  0  0  0  0  0  0  0  0
    6.4160   -0.4700   -5.6810 O   0  0  0  0  0  0  0  0  0  0  0  0
    4.9390   -2.2220   -5.1280 C   0  0  0  0  0  0  0  0  0  0  0  0
    5.2890   -3.3020   -4.4030 C   0  0  0  0  0  3  0  0  0  0  0  0
    4.7150   -4.5520   -4.5440 C   0  0  0  0  0  3  0  0  0  0  0  0
    3.7510   -4.7320   -5.5070 C   0  0  0  0  0  3  0  0  0  0  0  0
    3.3710   -3.6480   -6.2860 C   0  0  0  0  0  3  0  0  0  0  0  0
    3.9720   -2.4040   -6.0920 C   0  0  0  0  0  3  0  0  0  0  0  0
    7.3250   -0.4840   -2.6910 O   0  0  0  0  0  0  0  0  0  0  0  0
    7.6220   -0.9270   -3.5260 H   0  0  0  0  0  0  0  0  0  0  0  0
  1  8  1  0  0  0  0
  2  1  2  0  0  0  0
  3  2  1  0  0  0  0
  4  3  2  0  0  0  0
  4  5  1  0  0  0  0
  5  6  2  0  0  0  0
  6  1  1  0  0  0  0
  8  7  1  0  0  0  0
  9  4  1  0  0  0  0
 10  9  2  0  0  0  0
 11  9  1  0  0  0  0
 11 12  1  0  0  0  0
 13 12  2  0  0  0  0
 14 13  1  0  0  0  0
 15 16  1  0  0  0  0
 15 14  2  0  0  0  0
 16 11  2  0  0  0  0
 17  5  1  0  0  0  0
 18 17  1  0  0  0  0
M  END
>  <MODEL>
6

>  <REMARK>
 VINA RESULT:      -3.7     11.442     13.175
  Name = ox1_esm1_f8_ligand
  5 active torsions:
  status: ('A' for Active; 'I' for Inactive)
    1  A    between atoms: C_1  and  O_2
    2  A    between atoms: O_2  and  C_3
    3  A    between atoms: C_6  and  C_7
    4  A    between atoms: C_7  and  C_9
    5  A    between atoms: C_15  and  O_16
                            x       y       z     vdW  Elec       q    Type
                         _______ _______ _______ _____ _____    ______ ____

>  <TORSDO>
F 4

$$$$
ox1_esm1_f8_ligand
 OpenBabel10092621183D

 18 19  0  0  0  0  0  0  0  0999 V2000
    2.2410   -3.7260  -13.2550 C   0  0  0  0  0  0  0  0  0  0  0  0
    1.2320   -4.1500  -14.1190 C   0  0  0  0  0  3  0  0  0  0  0  0
    0.4420   -5.2410  -13.7880 C   0  0  0  0  0  3  0  0  0  0  0  0
    0.6310   -5.9180  -12.5960 C   0  0  0  0  0  0  0  0  0  0  0  0
    1.6540   -5.5020  -11.7190 C   0  0  0  0  0  0  0  0  0  0  0  0
    2.4450   -4.4070  -12.0650 C   0  0  0  0  0  3  0  0  0  0  0  0
    3.3720   -1.6540  -12.6600 C   0  0  0  0  0  1  0  0  0  0  0  0
    2.9860   -2.6420  -13.6200 O   0  0  0  0  0  0  0  0  0  0  0  0
   -0.2370   -7.0870  -12.2400 C   0  0  0  0  0  0  0  0  0  0  0  0
   -1.0430   -6.9790  -11.3190 O   0  0  0  0  0  0  0  0  0  0  0  0
   -0.1160   -8.3820  -12.9710 C   0  0  0  0  0  0  0  0  0  0  0  0
    0.8530   -9.2660  -12.6620 C   0  0  0  0  0  3  0  0  0  0  0  0
    1.0040  -10.4990  -13.2720 C   0  0  0  0  0  3  0  0  0  0  0  0
    0.1430  -10.8440  -14.2850 C   0  0  0  0  0  3  0  0  0  0  0  0
   -0.8610   -9.9560  -14.6450 C   0  0  0  0  0  3  0  0  0  0  0  0
   -0.9780   -8.7310  -13.9870 C   0  0  0  0  0  3  0  0  0  0  0  0
    1.8540   -6.1800  -10.5510 O   0  0  0  0  0  0  0  0  0  0  0  0
    2.3470   -7.0390  -10.5560 H   0  0  0  0  0  0  0  0  0  0  0  0
  1  6  1  0  0  0  0
  2  3  1  0  0  0  0
  2  1  2  0  0  0  0
  3  4  2  0  0  0  0
  4  9  1  0  0  0  0
  4  5  1  0  0  0  0
  5 17  1  0  0  0  0
  6  5  2  0  0  0  0
  8  1  1  0  0  0  0
  8  7  1  0  0  0  0
  9 10  2  0  0  0  0
 11 12  1  0  0  0  0
 11  9  1  0  0  0  0
 13 12  2  0  0  0  0
 14 13  1  0  0  0  0
 15 14  2  0  0  0  0
 15 16  1  0  0  0  0
 16 11  2  0  0  0  0
 18 17  1  0  0  0  0
M  END
>  <MODEL>
7

>  <REMARK>
 VINA RESULT:      -3.7      2.472      5.500
  Name = ox1_esm1_f8_ligand
  5 active torsions:
  status: ('A' for Active; 'I' for Inactive)
    1  A    between atoms: C_1  and  O_2
    2  A    between atoms: O_2  and  C_3
    3  A    between atoms: C_6  and  C_7
    4  A    between atoms: C_7  and  C_9
    5  A    between atoms: C_15  and  O_16
                            x       y       z     vdW  Elec       q    Type
                         _______ _______ _______ _____ _____    ______ ____

>  <TORSDO>
F 4

$$$$
ox1_esm1_f8_ligand
 OpenBabel10092621183D

 18 19  0  0  0  0  0  0  0  0999 V2000
    5.2110   -5.8000   -6.0040 C   0  0  0  0  0  0  0  0  0  0  0  0
    4.0000   -5.2420   -5.5960 C   0  0  0  0  0  3  0  0  0  0  0  0
    3.8260   -3.8650   -5.6060 C   0  0  0  0  0  3  0  0  0  0  0  0
    4.8410   -3.0250   -6.0300 C   0  0  0  0  0  0  0  0  0  0  0  0
    6.0720   -3.5790   -6.4370 C   0  0  0  0  0  0  0  0  0  0  0  0
    6.2370   -4.9640   -6.4180 C   0  0  0  0  0  3  0  0  0  0  0  0
    6.0990   -7.8460   -6.9760 C   0  0  0  0  0  1  0  0  0  0  0  0
    5.3300   -7.1590   -5.9850 O   0  0  0  0  0  0  0  0  0  0  0  0
    4.6390   -1.5400   -6.0520 C   0  0  0  0  0  0  0  0  0  0  0  0
    4.5070   -0.9670   -7.1300 O   0  0  0  0  0  0  0  0  0  0  0  0
    4.6240   -0.7500   -4.7850 C   0  0  0  0  0  0  0  0  0  0  0  0
    3.7820    0.2900   -4.6260 C   0  0  0  0  0  3  0  0  0  0  0  0
    3.6860    1.0420   -3.4700 C   0  0  0  0  0  3  0  0  0  0  0  0
    4.5230    0.7490   -2.4200 C   0  0  0  0  0  3  0  0  0  0  0  0
    5.4160   -0.3060   -2.5470 C   0  0  0  0  0  3  0  0  0  0  0  0
    5.4600   -1.0430   -3.7310 C   0  0  0  0  0  3  0  0  0  0  0  0
    7.0810   -2.7510   -6.8380 O   0  0  0  0  0  0  0  0  0  0  0  0
    7.9600   -3.1300   -7.0920 H   0  0  0  0  0  0  0  0  0  0  0  0
  1  8  1  0  0  0  0
  1  2  1  0  0  0  0
  3  2  2  0  0  0  0
  4  3  1  0  0  0  0
  5  6  1  0  0  0  0
  5  4  2  0  0  0  0
  6  1  2  0  0  0  0
  7  8  1  0  0  0  0
  9  4  1  0  0  0  0
  9 11  1  0  0  0  0
 10  9  2  0  0  0  0
 11 12  2  0  0  0  0
 11 16  1  0  0  0  0
 12 13  1  0  0  0  0
 13 14  2  0  0  0  0
 15 14  1  0  0  0  0
 16 15  2  0  0  0  0
 17  5  1  0  0  0  0
 18 17  1  0  0  0  0
M  END
>  <MODEL>
8

>  <REMARK>
 VINA RESULT:      -3.7      9.163     10.614
  Name = ox1_esm1_f8_ligand
  5 active torsions:
  status: ('A' for Active; 'I' for Inactive)
    1  A    between atoms: C_1  and  O_2
    2  A    between atoms: O_2  and  C_3
    3  A    between atoms: C_6  and  C_7
    4  A    between atoms: C_7  and  C_9
    5  A    between atoms: C_15  and  O_16
                            x       y       z     vdW  Elec       q    Type
                         _______ _______ _______ _____ _____    ______ ____

>  <TORSDO>
F 4

$$$$
ox1_esm1_f8_ligand
 OpenBabel10092621183D

 18 19  0  0  0  0  0  0  0  0999 V2000
    5.6170   -9.2590   -9.6770 C   0  0  0  0  0  0  0  0  0  0  0  0
    5.1620   -9.5460  -10.9640 C   0  0  0  0  0  3  0  0  0  0  0  0
    3.8150   -9.7820  -11.1920 C   0  0  0  0  0  3  0  0  0  0  0  0
    2.8980   -9.7250  -10.1560 C   0  0  0  0  0  0  0  0  0  0  0  0
    3.3490   -9.4430   -8.8500 C   0  0  0  0  0  0  0  0  0  0  0  0
    4.7070   -9.2130   -8.6320 C   0  0  0  0  0  3  0  0  0  0  0  0
    7.8430  -10.0820   -9.1380 C   0  0  0  0  0  1  0  0  0  0  0  0
    6.9500   -9.0260   -9.5040 O   0  0  0  0  0  0  0  0  0  0  0  0
    1.4420   -9.9660  -10.4140 C   0  0  0  0  0  0  0  0  0  0  0  0
    0.8920  -10.9360   -9.8980 O   0  0  0  0  0  0  0  0  0  0  0  0
    0.6620   -9.0600  -11.3080 C   0  0  0  0  0  0  0  0  0  0  0  0
    0.3510   -9.4250  -12.5670 C   0  0  0  0  0  3  0  0  0  0  0  0
   -0.3970   -8.6540  -13.4380 C   0  0  0  0  0  3  0  0  0  0  0  0
   -0.8270   -7.4170  -13.0210 C   0  0  0  0  0  3  0  0  0  0  0  0
   -0.5160   -6.9960  -11.7360 C   0  0  0  0  0  3  0  0  0  0  0  0
    0.2290   -7.8200  -10.8930 C   0  0  0  0  0  3  0  0  0  0  0  0
    2.4500   -9.4040   -7.8230 O   0  0  0  0  0  0  0  0  0  0  0  0
    1.7390   -8.7150   -7.8150 H   0  0  0  0  0  0  0  0  0  0  0  0
  1  8  1  0  0  0  0
  1  6  1  0  0  0  0
  2  1  2  0  0  0  0
  3  2  1  0  0  0  0
  3  4  2  0  0  0  0
  4  5  1  0  0  0  0
  5  6  2  0  0  0  0
  5 17  1  0  0  0  0
  8  7  1  0  0  0  0
  9  4  1  0  0  0  0
  9 10  2  0  0  0  0
 11 16  1  0  0  0  0
 11  9  1  0  0  0  0
 12 11  2  0  0  0  0
 13 14  2  0  0  0  0
 13 12  1  0  0  0  0
 14 15  1  0  0  0  0
 15 16  2  0  0  0  0
 17 18  1  0  0  0  0
M  END
>  <MODEL>
9

>  <REMARK>
 VINA RESULT:      -3.7      2.623      4.374
  Name = ox1_esm1_f8_ligand
  5 active torsions:
  status: ('A' for Active; 'I' for Inactive)
    1  A    between atoms: C_1  and  O_2
    2  A    between atoms: O_2  and  C_3
    3  A    between atoms: C_6  and  C_7
    4  A    between atoms: C_7  and  C_9
    5  A    between atoms: C_15  and  O_16
                            x       y       z     vdW  Elec       q    Type
                         _______ _______ _______ _____ _____    ______ ____

>  <TORSDO>
F 4

$$$$
