bg33_1_pose0_reference
     RDKit          3D

 20 20  0  0  0  0  0  0  0  0999 V2000
    4.3320  -10.7190   18.4360 C   0  0  0  0  0  0  0  0  0  0  0  0
    5.6390   -9.9720   18.2920 C   0  0  0  0  0  0  0  0  0  0  0  0
    5.5900   -9.1030   17.1330 C   0  0  0  0  0  0  0  0  0  0  0  0
    6.0010   -9.9630   16.0820 C   0  0  0  0  0  0  0  0  0  0  0  0
    5.6380   -9.5090   14.8050 C   0  0  2  0  0  0  0  0  0  0  0  0
    6.6990   -8.9210   13.9380 C   0  0  0  0  0  0  0  0  0  0  0  0
    7.0130   -7.5820   14.2590 C   0  0  0  0  0  0  0  0  0  0  0  0
    4.5590   -8.8590   14.7450 O   0  0  0  0  0  0  0  0  0  0  0  0
    4.0130   -8.9200   13.5780 C   0  0  0  0  0  0  0  0  0  0  0  0
    4.4900   -9.6220   12.7270 O   0  0  0  0  0  0  0  0  0  0  0  0
    2.8550   -8.1590   13.3260 C   0  0  0  0  0  0  0  0  0  0  0  0
    2.7230   -7.6500   12.1840 C   0  0  0  0  0  0  0  0  0  0  0  0
    1.7290   -6.7610   11.8370 C   0  0  0  0  0  0  0  0  0  0  0  0
    0.4320   -7.0720   11.9720 C   0  0  0  0  0  0  0  0  0  0  0  0
   -0.5590   -6.2100   11.6340 C   0  0  0  0  0  0  0  0  0  0  0  0
   -0.1840   -4.9800   11.1790 C   0  0  0  0  0  0  0  0  0  0  0  0
   -1.0890   -4.0990   10.8240 O   0  0  0  0  0  0  0  0  0  0  0  0
   -1.0020   -2.8980   11.5110 C   0  0  0  0  0  0  0  0  0  0  0  0
    1.0750   -4.6200   11.0390 C   0  0  0  0  0  0  0  0  0  0  0  0
    2.0360   -5.5220   11.3440 C   0  0  0  0  0  0  0  0  0  0  0  0
  2  1  1  0
  3  2  1  0
  4  3  1  0
  5  4  1  1
  6  5  1  0
  7  6  1  0
  8  5  1  0
  9  8  1  0
 10  9  2  0
 11  9  1  0
 12 11  2  3
 13 12  1  0
 14 13  1  0
 15 14  2  0
 16 15  1  0
 17 16  1  0
 18 17  1  0
 19 16  2  0
 20 13  2  0
 20 19  1  0
M  END
>  <structure>  (1) 
bg33_1

>  <pose>  (1) 
0

>  <is_reference>  (1) 
1

>  <rmsd_to_reference_A>  (1) 
0.000

>  <vina_score>  (1) 


$$$$
