shuffle_control_esm0_ligand
     RDKit          3D

 44 44  0  0  0  0  0  0  0  0999 V2000
    9.5491    3.6084   11.6224 C   0  0  0  0  0  0  0  0  0  0  0  0
    8.4905    2.5868   11.3948 C   0  0  0  0  0  0  0  0  0  0  0  0
    7.7561    2.6377   10.0895 C   0  0  0  0  0  0  0  0  0  0  0  0
    8.4357    3.3158    8.9502 C   0  0  0  0  0  0  0  0  0  0  0  0
    7.7543    3.1549    7.6307 C   0  0  1  0  0  0  0  0  0  0  0  0
    8.7296    3.5804    6.5483 C   0  0  0  0  0  0  0  0  0  0  0  0
    8.1845    3.6542    5.1512 C   0  0  0  0  0  0  0  0  0  0  0  0
    7.3586    1.7926    7.5057 O   0  0  0  0  0  0  0  0  0  0  0  0
    6.1176    1.4273    7.0990 C   0  0  0  0  0  0  0  0  0  0  0  0
    5.3230    2.2266    6.7171 O   0  0  0  0  0  0  0  0  0  0  0  0
    5.8479   -0.0406    7.1848 C   0  0  0  0  0  0  0  0  0  0  0  0
    5.4726   -0.5960    8.3234 C   0  0  0  0  0  0  0  0  0  0  0  0
    5.3124   -2.0696    8.5071 C   0  0  0  0  0  0  0  0  0  0  0  0
    5.9174   -2.6628    9.5854 C   0  0  0  0  0  0  0  0  0  0  0  0
    5.8255   -4.0324    9.7891 C   0  0  0  0  0  0  0  0  0  0  0  0
    5.1101   -4.8237    8.9101 C   0  0  0  0  0  0  0  0  0  0  0  0
    5.0064   -6.1602    9.0653 O   0  0  0  0  0  0  0  0  0  0  0  0
    5.7237   -6.8026   10.1174 C   0  0  0  0  0  0  0  0  0  0  0  0
    4.4874   -4.2196    7.8176 C   0  0  0  0  0  0  0  0  0  0  0  0
    4.5812   -2.8381    7.6212 C   0  0  0  0  0  0  0  0  0  0  0  0
    9.9198    3.9744   10.6537 H   0  0  0  0  0  0  0  0  0  0  0  0
    9.1306    4.4485   12.1960 H   0  0  0  0  0  0  0  0  0  0  0  0
   10.3790    3.1571   12.1858 H   0  0  0  0  0  0  0  0  0  0  0  0
    8.9649    1.5972   11.4687 H   0  0  0  0  0  0  0  0  0  0  0  0
    7.7261    2.7971   12.1574 H   0  0  0  0  0  0  0  0  0  0  0  0
    7.5533    1.6007    9.7836 H   0  0  0  0  0  0  0  0  0  0  0  0
    6.8636    3.2485   10.2906 H   0  0  0  0  0  0  0  0  0  0  0  0
    8.4938    4.3907    9.1768 H   0  0  0  0  0  0  0  0  0  0  0  0
    9.4225    2.8404    8.8500 H   0  0  0  0  0  0  0  0  0  0  0  0
    6.8530    3.7790    7.5401 H   0  0  0  0  0  0  0  0  0  0  0  0
    9.1088    4.5785    6.8128 H   0  0  0  0  0  0  0  0  0  0  0  0
    9.4982    2.7939    6.5214 H   0  0  0  0  0  0  0  0  0  0  0  0
    8.7959    3.0271    4.4855 H   0  0  0  0  0  0  0  0  0  0  0  0
    7.1456    3.2928    5.1433 H   0  0  0  0  0  0  0  0  0  0  0  0
    8.2130    4.6966    4.8010 H   0  0  0  0  0  0  0  0  0  0  0  0
    5.9636   -0.6668    6.2878 H   0  0  0  0  0  0  0  0  0  0  0  0
    5.2675    0.0614    9.1812 H   0  0  0  0  0  0  0  0  0  0  0  0
    6.4830   -2.0448   10.2984 H   0  0  0  0  0  0  0  0  0  0  0  0
    6.3249   -4.4911   10.6553 H   0  0  0  0  0  0  0  0  0  0  0  0
    6.2574   -7.6770    9.7167 H   0  0  0  0  0  0  0  0  0  0  0  0
    6.4484   -6.0976   10.5507 H   0  0  0  0  0  0  0  0  0  0  0  0
    5.0185   -7.1285   10.8962 H   0  0  0  0  0  0  0  0  0  0  0  0
    3.9181   -4.8346    7.1050 H   0  0  0  0  0  0  0  0  0  0  0  0
    4.0757   -2.3657    6.7660 H   0  0  0  0  0  0  0  0  0  0  0  0
  2  1  1  0
  3  2  1  0
  4  3  1  0
  5  4  1  0
  6  5  1  0
  7  6  1  0
  8  5  1  0
  9  8  1  0
 10  9  2  0
 11  9  1  0
 12 11  2  3
 13 12  1  0
 14 13  1  0
 15 14  2  0
 16 15  1  0
 17 16  1  0
 18 17  1  0
 19 16  2  0
 20 13  2  0
 20 19  1  0
  1 21  1  0
  1 22  1  0
  1 23  1  0
  2 24  1  0
  2 25  1  0
  3 26  1  0
  3 27  1  0
  4 28  1  0
  4 29  1  0
  5 30  1  1
  6 31  1  0
  6 32  1  0
  7 33  1  0
  7 34  1  0
  7 35  1  0
 11 36  1  0
 12 37  1  0
 14 38  1  0
 15 39  1  0
 18 40  1  0
 18 41  1  0
 18 42  1  0
 19 43  1  0
 20 44  1  0
M  END
$$$$
