shuffle_control_esm0_ligand
 OpenBabel10092621113D

 20 20  0  0  1  0  0  0  0  0999 V2000
    5.3030    6.4230    4.0390 C   0  0  0  0  0  0  0  0  0  0  0  0
    4.8870    7.4870    3.7020 O   0  0  0  0  0  0  0  0  0  0  0  0
    4.4790    5.3880    4.7350 C   0  0  0  0  0  3  0  0  0  0  0  0
    3.9940    4.3520    4.0770 C   0  0  0  0  0  3  0  0  0  0  0  0
    3.0600    3.3540    4.6830 C   0  0  0  0  0  0  0  0  0  0  0  0
    3.3570    2.8530    5.9240 C   0  0  0  0  0  3  0  0  0  0  0  0
    2.5420    1.9030    6.5210 C   0  0  0  0  0  3  0  0  0  0  0  0
    1.4050    1.4510    5.8770 C   0  0  0  0  0  0  0  0  0  0  0  0
    1.0980    1.9680    4.6180 C   0  0  0  0  0  3  0  0  0  0  0  0
    1.9230    2.9280    4.0230 C   0  0  0  0  0  3  0  0  0  0  0  0
    0.5920    0.5200    6.4170 O   0  0  0  0  0  0  0  0  0  0  0  0
   -0.6070    0.1550    5.7360 C   0  0  0  0  0  1  0  0  0  0  0  0
    6.5920    6.0600    3.8220 O   0  0  0  0  0  0  0  0  0  0  0  0
    7.1690    6.0240    2.5210 C   0  0  2  0  0  3  0  0  0  0  0  0
    6.7560    4.7930    1.7340 C   0  0  0  0  0  2  0  0  0  0  0  0
    5.7500    5.0080    0.6400 C   0  0  0  0  0  1  0  0  0  0  0  0
    8.6540    5.9890    2.6790 C   0  0  0  0  0  2  0  0  0  0  0  0
    9.3490    4.9960    1.8120 C   0  0  0  0  0  3  0  0  0  0  0  0
   11.3020    4.5360    0.2380 C   0  0  0  0  0  1  0  0  0  0  0  0
   10.3710    5.5220    0.8490 C   0  0  0  0  0  3  0  0  0  0  0  0
  1  3  1  0  0  0  0
  2  1  2  0  0  0  0
  4  5  1  0  0  0  0
  4  3  2  0  0  0  0
  5  6  1  0  0  0  0
  6  7  2  0  0  0  0
  8 11  1  0  0  0  0
  8  7  1  0  0  0  0
  9  8  2  0  0  0  0
 10  9  1  0  0  0  0
 10  5  2  0  0  0  0
 12 11  1  0  0  0  0
 13  1  1  0  0  0  0
 14 15  1  1  0  0  0
 14 17  1  0  0  0  0
 14 13  1  0  0  0  0
 16 15  1  0  0  0  0
 18 17  1  0  0  0  0
 19 20  1  0  0  0  0
 20 18  2  0  0  0  0
M  END
>  <MODEL>
1

>  <REMARK>
 VINA RESULT:      -4.9      0.000      0.000
  Name = shuffle_control_esm0_ligand
  12 active torsions:
  status: ('A' for Active; 'I' for Inactive)
    1  A    between atoms: C_1  and  C_2
    2  A    between atoms: C_2  and  C_3
    3  A    between atoms: C_3  and  C_4
    4  A    between atoms: C_4  and  C_5
    5  A    between atoms: C_5  and  C_6
    6  A    between atoms: C_5  and  O_8
    7  A    between atoms: C_6  and  C_7
    8  A    between atoms: O_8  and  C_9
    9  A    between atoms: C_9  and  C_11
   10  A    between atoms: C_12  and  C_13
   11  A    between atoms: C_16  and  O_17
   12  A    between atoms: O_17  and  C_18
                            x       y       z     vdW  Elec       q    Type
                         _______ _______ _______ _____ _____    ______ ____

>  <TORSDO>
F 9

$$$$
shuffle_control_esm0_ligand
 OpenBabel10092621113D

 20 20  0  0  1  0  0  0  0  0999 V2000
    2.3470    5.2940    4.8160 C   0  0  0  0  0  0  0  0  0  0  0  0
    2.0450    6.3540    5.2670 O   0  0  0  0  0  0  0  0  0  0  0  0
    3.6100    5.0400    4.0590 C   0  0  0  0  0  3  0  0  0  0  0  0
    4.7070    5.7270    4.3200 C   0  0  0  0  0  3  0  0  0  0  0  0
    5.9620    5.6120    3.5170 C   0  0  0  0  0  0  0  0  0  0  0  0
    5.9040    4.9780    2.3020 C   0  0  0  0  0  3  0  0  0  0  0  0
    7.0440    4.8170    1.5280 C   0  0  0  0  0  3  0  0  0  0  0  0
    8.2610    5.3040    1.9660 C   0  0  0  0  0  0  0  0  0  0  0  0
    8.3190    5.9560    3.1970 C   0  0  0  0  0  3  0  0  0  0  0  0
    7.1650    6.1180    3.9700 C   0  0  0  0  0  3  0  0  0  0  0  0
    9.3950    5.1570    1.2490 O   0  0  0  0  0  0  0  0  0  0  0  0
    9.5060    5.7850   -0.0270 C   0  0  0  0  0  1  0  0  0  0  0  0
    1.5440    4.2090    4.9480 O   0  0  0  0  0  0  0  0  0  0  0  0
    1.9300    2.9120    4.5030 C   0  0  2  0  0  3  0  0  0  0  0  0
    0.8710    2.2560    3.6350 C   0  0  0  0  0  2  0  0  0  0  0  0
    0.1640    3.1490    2.6560 C   0  0  0  0  0  1  0  0  0  0  0  0
    2.1290    2.0540    5.7090 C   0  0  0  0  0  2  0  0  0  0  0  0
    3.4480    2.2220    6.3810 C   0  0  0  0  0  2  0  0  0  0  0  0
    3.8320    4.2240    7.9140 C   0  0  0  0  0  1  0  0  0  0  0  0
    3.4440    2.7960    7.7670 C   0  0  0  0  0  2  0  0  0  0  0  0
  1 13  1  0  0  0  0
  1  2  2  0  0  0  0
  3  4  2  0  0  0  0
  3  1  1  0  0  0  0
  5 10  1  0  0  0  0
  5  4  1  0  0  0  0
  6  5  2  0  0  0  0
  7  8  2  0  0  0  0
  7  6  1  0  0  0  0
  8  9  1  0  0  0  0
  9 10  2  0  0  0  0
 11  8  1  0  0  0  0
 12 11  1  0  0  0  0
 14 15  1  6  0  0  0
 14 13  1  0  0  0  0
 14 17  1  0  0  0  0
 16 15  1  0  0  0  0
 17 18  1  0  0  0  0
 18 20  1  0  0  0  0
 20 19  1  0  0  0  0
M  END
>  <MODEL>
2

>  <REMARK>
 VINA RESULT:      -4.8      1.929      7.416
  Name = shuffle_control_esm0_ligand
  12 active torsions:
  status: ('A' for Active; 'I' for Inactive)
    1  A    between atoms: C_1  and  C_2
    2  A    between atoms: C_2  and  C_3
    3  A    between atoms: C_3  and  C_4
    4  A    between atoms: C_4  and  C_5
    5  A    between atoms: C_5  and  C_6
    6  A    between atoms: C_5  and  O_8
    7  A    between atoms: C_6  and  C_7
    8  A    between atoms: O_8  and  C_9
    9  A    between atoms: C_9  and  C_11
   10  A    between atoms: C_12  and  C_13
   11  A    between atoms: C_16  and  O_17
   12  A    between atoms: O_17  and  C_18
                            x       y       z     vdW  Elec       q    Type
                         _______ _______ _______ _____ _____    ______ ____

>  <TORSDO>
F 9

$$$$
shuffle_control_esm0_ligand
 OpenBabel10092621113D

 20 20  0  0  1  0  0  0  0  0999 V2000
    2.5960    5.4510    3.3660 C   0  0  0  0  0  0  0  0  0  0  0  0
    1.9520    6.4050    3.0590 O   0  0  0  0  0  0  0  0  0  0  0  0
    3.9520    5.1480    2.8140 C   0  0  0  0  0  3  0  0  0  0  0  0
    5.0380    5.6590    3.3650 C   0  0  0  0  0  3  0  0  0  0  0  0
    6.4070    5.5000    2.7890 C   0  0  0  0  0  0  0  0  0  0  0  0
    7.4820    5.8950    3.5420 C   0  0  0  0  0  3  0  0  0  0  0  0
    8.7740    5.7970    3.0460 C   0  0  0  0  0  3  0  0  0  0  0  0
    9.0010    5.2880    1.7810 C   0  0  0  0  0  0  0  0  0  0  0  0
    7.9080    4.8780    1.0170 C   0  0  0  0  0  3  0  0  0  0  0  0
    6.6090    4.9760    1.5260 C   0  0  0  0  0  3  0  0  0  0  0  0
   10.2400    5.1870    1.2560 O   0  0  0  0  0  0  0  0  0  0  0  0
   10.3990    4.7220   -0.0830 C   0  0  0  0  0  1  0  0  0  0  0  0
    2.1350    4.5360    4.2540 O   0  0  0  0  0  0  0  0  0  0  0  0
    2.4000    3.1430    4.1260 C   0  0  2  0  0  3  0  0  0  0  0  0
    1.1360    2.3260    3.9240 C   0  0  0  0  0  2  0  0  0  0  0  0
    0.1510    2.8590    2.9240 C   0  0  0  0  0  1  0  0  0  0  0  0
    3.0460    2.6800    5.3910 C   0  0  0  0  0  2  0  0  0  0  0  0
    3.5290    3.7750    6.2790 C   0  0  0  0  0  2  0  0  0  0  0  0
    3.6290    4.6480    8.6740 C   0  0  0  0  0  1  0  0  0  0  0  0
    3.6040    3.4830    7.7480 C   0  0  0  0  0  2  0  0  0  0  0  0
  1 13  1  0  0  0  0
  2  1  2  0  0  0  0
  3  4  2  0  0  0  0
  3  1  1  0  0  0  0
  5  4  1  0  0  0  0
  5  6  1  0  0  0  0
  7  6  2  0  0  0  0
  8  7  1  0  0  0  0
  9 10  1  0  0  0  0
  9  8  2  0  0  0  0
 10  5  2  0  0  0  0
 11  8  1  0  0  0  0
 12 11  1  0  0  0  0
 14 15  1  1  0  0  0
 14 13  1  0  0  0  0
 14 17  1  0  0  0  0
 16 15  1  0  0  0  0
 17 18  1  0  0  0  0
 18 20  1  0  0  0  0
 20 19  1  0  0  0  0
M  END
>  <MODEL>
3

>  <REMARK>
 VINA RESULT:      -4.7      2.058      7.492
  Name = shuffle_control_esm0_ligand
  12 active torsions:
  status: ('A' for Active; 'I' for Inactive)
    1  A    between atoms: C_1  and  C_2
    2  A    between atoms: C_2  and  C_3
    3  A    between atoms: C_3  and  C_4
    4  A    between atoms: C_4  and  C_5
    5  A    between atoms: C_5  and  C_6
    6  A    between atoms: C_5  and  O_8
    7  A    between atoms: C_6  and  C_7
    8  A    between atoms: O_8  and  C_9
    9  A    between atoms: C_9  and  C_11
   10  A    between atoms: C_12  and  C_13
   11  A    between atoms: C_16  and  O_17
   12  A    between atoms: O_17  and  C_18
                            x       y       z     vdW  Elec       q    Type
                         _______ _______ _______ _____ _____    ______ ____

>  <TORSDO>
F 9

$$$$
shuffle_control_esm0_ligand
 OpenBabel10092621113D

 20 20  0  0  1  0  0  0  0  0999 V2000
    3.4840    5.6890    2.6430 C   0  0  0  0  0  0  0  0  0  0  0  0
    3.1910    6.8380    2.5340 O   0  0  0  0  0  0  0  0  0  0  0  0
    3.1290    4.8470    3.8270 C   0  0  0  0  0  3  0  0  0  0  0  0
    3.9020    4.8220    4.8970 C   0  0  0  0  0  3  0  0  0  0  0  0
    3.6730    3.9090    6.0580 C   0  0  0  0  0  0  0  0  0  0  0  0
    3.7320    4.4340    7.3230 C   0  0  0  0  0  3  0  0  0  0  0  0
    3.5560    3.6280    8.4380 C   0  0  0  0  0  3  0  0  0  0  0  0
    3.3060    2.2760    8.2910 C   0  0  0  0  0  0  0  0  0  0  0  0
    3.2370    1.7430    7.0040 C   0  0  0  0  0  3  0  0  0  0  0  0
    3.4120    2.5630    5.8840 C   0  0  0  0  0  3  0  0  0  0  0  0
    3.1410    1.4540    9.3480 O   0  0  0  0  0  0  0  0  0  0  0  0
    4.0070    1.5780   10.4750 C   0  0  0  0  0  1  0  0  0  0  0  0
    4.1880    5.0370    1.6840 O   0  0  0  0  0  0  0  0  0  0  0  0
    5.4920    5.4430    1.2820 C   0  0  2  0  0  3  0  0  0  0  0  0
    5.8400    4.9770   -0.1200 C   0  0  0  0  0  2  0  0  0  0  0  0
    6.9210    5.7430   -0.8280 C   0  0  0  0  0  1  0  0  0  0  0  0
    6.4750    4.8300    2.2250 C   0  0  0  0  0  2  0  0  0  0  0  0
    7.1580    5.7980    3.1280 C   0  0  0  0  0  2  0  0  0  0  0  0
    9.3460    5.1970    1.9630 C   0  0  0  0  0  1  0  0  0  0  0  0
    8.6570    5.7790    3.1460 C   0  0  0  0  0  2  0  0  0  0  0  0
  1  3  1  0  0  0  0
  2  1  2  0  0  0  0
  3  4  2  0  0  0  0
  4  5  1  0  0  0  0
  5  6  1  0  0  0  0
  6  7  2  0  0  0  0
  8  7  1  0  0  0  0
  8 11  1  0  0  0  0
  9  8  2  0  0  0  0
 10  5  2  0  0  0  0
 10  9  1  0  0  0  0
 11 12  1  0  0  0  0
 13  1  1  0  0  0  0
 14 15  1  6  0  0  0
 14 13  1  0  0  0  0
 14 17  1  0  0  0  0
 16 15  1  0  0  0  0
 17 18  1  0  0  0  0
 18 20  1  0  0  0  0
 19 20  1  0  0  0  0
M  END
>  <MODEL>
4

>  <REMARK>
 VINA RESULT:      -4.7      2.106      2.921
  Name = shuffle_control_esm0_ligand
  12 active torsions:
  status: ('A' for Active; 'I' for Inactive)
    1  A    between atoms: C_1  and  C_2
    2  A    between atoms: C_2  and  C_3
    3  A    between atoms: C_3  and  C_4
    4  A    between atoms: C_4  and  C_5
    5  A    between atoms: C_5  and  C_6
    6  A    between atoms: C_5  and  O_8
    7  A    between atoms: C_6  and  C_7
    8  A    between atoms: O_8  and  C_9
    9  A    between atoms: C_9  and  C_11
   10  A    between atoms: C_12  and  C_13
   11  A    between atoms: C_16  and  O_17
   12  A    between atoms: O_17  and  C_18
                            x       y       z     vdW  Elec       q    Type
                         _______ _______ _______ _____ _____    ______ ____

>  <TORSDO>
F 9

$$$$
shuffle_control_esm0_ligand
 OpenBabel10092621113D

 20 20  0  0  1  0  0  0  0  0999 V2000
    3.9120    5.0130    2.8800 C   0  0  0  0  0  0  0  0  0  0  0  0
    3.1470    5.8310    2.4750 O   0  0  0  0  0  0  0  0  0  0  0  0
    3.6340    4.1140    4.0410 C   0  0  0  0  0  3  0  0  0  0  0  0
    3.7920    4.5390    5.2810 C   0  0  0  0  0  3  0  0  0  0  0  0
    3.6550    3.6560    6.4790 C   0  0  0  0  0  0  0  0  0  0  0  0
    3.4120    2.3220    6.2810 C   0  0  0  0  0  3  0  0  0  0  0  0
    3.2480    1.4610    7.3570 C   0  0  0  0  0  3  0  0  0  0  0  0
    3.3360    1.9350    8.6520 C   0  0  0  0  0  0  0  0  0  0  0  0
    3.5910    3.2920    8.8540 C   0  0  0  0  0  3  0  0  0  0  0  0
    3.7600    4.1530    7.7640 C   0  0  0  0  0  3  0  0  0  0  0  0
    3.1700    1.1350    9.7250 O   0  0  0  0  0  0  0  0  0  0  0  0
    2.3290   -0.0130    9.6220 C   0  0  0  0  0  1  0  0  0  0  0  0
    5.1300    4.8330    2.3110 O   0  0  0  0  0  0  0  0  0  0  0  0
    5.5810    5.6060    1.2040 C   0  0  2  0  0  3  0  0  0  0  0  0
    5.8520    4.7580   -0.0260 C   0  0  0  0  0  2  0  0  0  0  0  0
    6.3150    5.4910   -1.2520 C   0  0  0  0  0  1  0  0  0  0  0  0
    6.8630    6.2660    1.5960 C   0  0  0  0  0  2  0  0  0  0  0  0
    7.5810    5.6100    2.7240 C   0  0  0  0  0  2  0  0  0  0  0  0
    9.4680    5.1330    1.0760 C   0  0  0  0  0  1  0  0  0  0  0  0
    9.0040    5.2020    2.4880 C   0  0  0  0  0  2  0  0  0  0  0  0
  1  3  1  0  0  0  0
  2  1  2  0  0  0  0
  3  4  2  0  0  0  0
  4  5  1  0  0  0  0
  5 10  1  0  0  0  0
  6  5  2  0  0  0  0
  6  7  1  0  0  0  0
  7  8  2  0  0  0  0
  8  9  1  0  0  0  0
  8 11  1  0  0  0  0
 10  9  2  0  0  0  0
 12 11  1  0  0  0  0
 13  1  1  0  0  0  0
 14 15  1  6  0  0  0
 14 17  1  0  0  0  0
 14 13  1  0  0  0  0
 16 15  1  0  0  0  0
 17 18  1  0  0  0  0
 19 20  1  0  0  0  0
 20 18  1  0  0  0  0
M  END
>  <MODEL>
5

>  <REMARK>
 VINA RESULT:      -4.7      2.091      2.800
  Name = shuffle_control_esm0_ligand
  12 active torsions:
  status: ('A' for Active; 'I' for Inactive)
    1  A    between atoms: C_1  and  C_2
    2  A    between atoms: C_2  and  C_3
    3  A    between atoms: C_3  and  C_4
    4  A    between atoms: C_4  and  C_5
    5  A    between atoms: C_5  and  C_6
    6  A    between atoms: C_5  and  O_8
    7  A    between atoms: C_6  and  C_7
    8  A    between atoms: O_8  and  C_9
    9  A    between atoms: C_9  and  C_11
   10  A    between atoms: C_12  and  C_13
   11  A    between atoms: C_16  and  O_17
   12  A    between atoms: O_17  and  C_18
                            x       y       z     vdW  Elec       q    Type
                         _______ _______ _______ _____ _____    ______ ____

>  <TORSDO>
F 9

$$$$
shuffle_control_esm0_ligand
 OpenBabel10092621113D

 20 20  0  0  1  0  0  0  0  0999 V2000
    5.0940    5.9520    2.5420 C   0  0  0  0  0  0  0  0  0  0  0  0
    4.4430    6.3850    1.6440 O   0  0  0  0  0  0  0  0  0  0  0  0
    4.6280    4.8720    3.4640 C   0  0  0  0  0  3  0  0  0  0  0  0
    3.4170    4.3580    3.3500 C   0  0  0  0  0  3  0  0  0  0  0  0
    2.8450    3.3710    4.3150 C   0  0  0  0  0  0  0  0  0  0  0  0
    1.6620    2.7560    3.9970 C   0  0  0  0  0  3  0  0  0  0  0  0
    1.0720    1.8530    4.8690 C   0  0  0  0  0  3  0  0  0  0  0  0
    1.6740    1.5500    6.0760 C   0  0  0  0  0  0  0  0  0  0  0  0
    2.8820    2.1690    6.3960 C   0  0  0  0  0  3  0  0  0  0  0  0
    3.4740    3.0760    5.5100 C   0  0  0  0  0  3  0  0  0  0  0  0
    1.1280    0.6880    6.9570 O   0  0  0  0  0  0  0  0  0  0  0  0
    1.7610    0.4770    8.2180 C   0  0  0  0  0  1  0  0  0  0  0  0
    6.3370    6.4210    2.8120 O   0  0  0  0  0  0  0  0  0  0  0  0
    7.4410    5.5610    3.0760 C   0  0  2  0  0  3  0  0  0  0  0  0
    8.5390    6.2490    3.8680 C   0  0  0  0  0  2  0  0  0  0  0  0
    8.4170    7.7380    4.0210 C   0  0  0  0  0  1  0  0  0  0  0  0
    8.0180    5.1390    1.7650 C   0  0  0  0  0  2  0  0  0  0  0  0
    9.5030    5.0180    1.7490 C   0  0  0  0  0  3  0  0  0  0  0  0
   11.5560    4.4040    0.3660 C   0  0  0  0  0  1  0  0  0  0  0  0
   10.1710    4.9470    0.4090 C   0  0  0  0  0  3  0  0  0  0  0  0
  1 13  1  0  0  0  0
  1  3  1  0  0  0  0
  2  1  2  0  0  0  0
  4  3  2  0  0  0  0
  4  5  1  0  0  0  0
  5 10  1  0  0  0  0
  6  5  2  0  0  0  0
  6  7  1  0  0  0  0
  7  8  2  0  0  0  0
  8  9  1  0  0  0  0
  8 11  1  0  0  0  0
 10  9  2  0  0  0  0
 11 12  1  0  0  0  0
 13 14  1  0  0  0  0
 14 17  1  6  0  0  0
 14 15  1  0  0  0  0
 15 16  1  0  0  0  0
 18 17  1  0  0  0  0
 19 20  1  0  0  0  0
 20 18  2  0  0  0  0
M  END
>  <MODEL>
6

>  <REMARK>
 VINA RESULT:      -4.6      1.182      2.080
  Name = shuffle_control_esm0_ligand
  12 active torsions:
  status: ('A' for Active; 'I' for Inactive)
    1  A    between atoms: C_1  and  C_2
    2  A    between atoms: C_2  and  C_3
    3  A    between atoms: C_3  and  C_4
    4  A    between atoms: C_4  and  C_5
    5  A    between atoms: C_5  and  C_6
    6  A    between atoms: C_5  and  O_8
    7  A    between atoms: C_6  and  C_7
    8  A    between atoms: O_8  and  C_9
    9  A    between atoms: C_9  and  C_11
   10  A    between atoms: C_12  and  C_13
   11  A    between atoms: C_16  and  O_17
   12  A    between atoms: O_17  and  C_18
                            x       y       z     vdW  Elec       q    Type
                         _______ _______ _______ _____ _____    ______ ____

>  <TORSDO>
F 9

$$$$
shuffle_control_esm0_ligand
 OpenBabel10092621113D

 20 20  0  0  1  0  0  0  0  0999 V2000
    6.0060    6.9270    3.6130 C   0  0  0  0  0  0  0  0  0  0  0  0
    5.7710    8.0220    4.0180 O   0  0  0  0  0  0  0  0  0  0  0  0
    5.3730    5.6850    4.1540 C   0  0  0  0  0  3  0  0  0  0  0  0
    4.1040    5.4100    3.9140 C   0  0  0  0  0  3  0  0  0  0  0  0
    3.3800    4.2560    4.5280 C   0  0  0  0  0  0  0  0  0  0  0  0
    2.4220    3.6170    3.7850 C   0  0  0  0  0  3  0  0  0  0  0  0
    1.6990    2.5580    4.3150 C   0  0  0  0  0  3  0  0  0  0  0  0
    1.9400    2.1220    5.6050 C   0  0  0  0  0  0  0  0  0  0  0  0
    2.9210    2.7670    6.3580 C   0  0  0  0  0  3  0  0  0  0  0  0
    3.6490    3.8310    5.8150 C   0  0  0  0  0  3  0  0  0  0  0  0
    1.2510    1.1050    6.1620 O   0  0  0  0  0  0  0  0  0  0  0  0
    0.0830    0.6090    5.5120 C   0  0  0  0  0  1  0  0  0  0  0  0
    6.8940    6.7120    2.6100 O   0  0  0  0  0  0  0  0  0  0  0  0
    7.3850    5.4160    2.2860 C   0  0  2  0  0  3  0  0  0  0  0  0
    8.8780    5.2810    2.5310 C   0  0  0  0  0  2  0  0  0  0  0  0
    9.7570    5.3090    1.3140 C   0  0  0  0  0  1  0  0  0  0  0  0
    7.1370    5.1810    0.8320 C   0  0  0  0  0  2  0  0  0  0  0  0
    5.7180    4.8910    0.4820 C   0  0  0  0  0  2  0  0  0  0  0  0
    3.8050    6.5770    0.4230 C   0  0  0  0  0  1  0  0  0  0  0  0
    4.9660    5.9520   -0.2650 C   0  0  0  0  0  2  0  0  0  0  0  0
  1  2  2  0  0  0  0
  1  3  1  0  0  0  0
  4  3  2  0  0  0  0
  4  5  1  0  0  0  0
  5 10  1  0  0  0  0
  6  7  1  0  0  0  0
  6  5  2  0  0  0  0
  7  8  2  0  0  0  0
  8 11  1  0  0  0  0
  8  9  1  0  0  0  0
 10  9  2  0  0  0  0
 12 11  1  0  0  0  0
 13  1  1  0  0  0  0
 14 17  1  6  0  0  0
 14 15  1  0  0  0  0
 14 13  1  0  0  0  0
 16 15  1  0  0  0  0
 18 17  1  0  0  0  0
 20 19  1  0  0  0  0
 20 18  1  0  0  0  0
M  END
>  <MODEL>
7

>  <REMARK>
 VINA RESULT:      -4.6      1.055      2.921
  Name = shuffle_control_esm0_ligand
  12 active torsions:
  status: ('A' for Active; 'I' for Inactive)
    1  A    between atoms: C_1  and  C_2
    2  A    between atoms: C_2  and  C_3
    3  A    between atoms: C_3  and  C_4
    4  A    between atoms: C_4  and  C_5
    5  A    between atoms: C_5  and  C_6
    6  A    between atoms: C_5  and  O_8
    7  A    between atoms: C_6  and  C_7
    8  A    between atoms: O_8  and  C_9
    9  A    between atoms: C_9  and  C_11
   10  A    between atoms: C_12  and  C_13
   11  A    between atoms: C_16  and  O_17
   12  A    between atoms: O_17  and  C_18
                            x       y       z     vdW  Elec       q    Type
                         _______ _______ _______ _____ _____    ______ ____

>  <TORSDO>
F 9

$$$$
shuffle_control_esm0_ligand
 OpenBabel10092621113D

 20 20  0  0  1  0  0  0  0  0999 V2000
    4.8610    6.6050    3.4620 C   0  0  0  0  0  0  0  0  0  0  0  0
    4.2430    7.6210    3.5280 O   0  0  0  0  0  0  0  0  0  0  0  0
    4.4930    5.3570    4.1980 C   0  0  0  0  0  3  0  0  0  0  0  0
    4.0050    5.4120    5.4240 C   0  0  0  0  0  3  0  0  0  0  0  0
    3.7380    4.2020    6.2590 C   0  0  0  0  0  0  0  0  0  0  0  0
    3.4200    3.0280    5.6260 C   0  0  0  0  0  3  0  0  0  0  0  0
    3.1350    1.8820    6.3520 C   0  0  0  0  0  3  0  0  0  0  0  0
    3.1760    1.9000    7.7340 C   0  0  0  0  0  0  0  0  0  0  0  0
    3.5080    3.0910    8.3790 C   0  0  0  0  0  3  0  0  0  0  0  0
    3.7990    4.2430    7.6390 C   0  0  0  0  0  3  0  0  0  0  0  0
    2.8940    0.8110    8.4780 O   0  0  0  0  0  0  0  0  0  0  0  0
    3.9270   -0.1300    8.7670 C   0  0  0  0  0  1  0  0  0  0  0  0
    5.9800    6.4980    2.7030 O   0  0  0  0  0  0  0  0  0  0  0  0
    7.1820    5.9110    3.1890 C   0  0  2  0  0  3  0  0  0  0  0  0
    8.2040    6.9480    3.6220 C   0  0  0  0  0  2  0  0  0  0  0  0
    8.1920    7.3290    5.0740 C   0  0  0  0  0  1  0  0  0  0  0  0
    7.7840    5.1110    2.0800 C   0  0  0  0  0  2  0  0  0  0  0  0
    9.2710    5.1580    2.0150 C   0  0  0  0  0  2  0  0  0  0  0  0
   11.1680    4.4040    0.4860 C   0  0  0  0  0  1  0  0  0  0  0  0
    9.8990    5.1620    0.6540 C   0  0  0  0  0  2  0  0  0  0  0  0
  1  2  2  0  0  0  0
  1  3  1  0  0  0  0
  3  4  2  0  0  0  0
  4  5  1  0  0  0  0
  5 10  1  0  0  0  0
  6  5  2  0  0  0  0
  6  7  1  0  0  0  0
  7  8  2  0  0  0  0
  8  9  1  0  0  0  0
  8 11  1  0  0  0  0
 10  9  2  0  0  0  0
 11 12  1  0  0  0  0
 13 14  1  0  0  0  0
 13  1  1  0  0  0  0
 14 17  1  6  0  0  0
 14 15  1  0  0  0  0
 15 16  1  0  0  0  0
 18 17  1  0  0  0  0
 19 20  1  0  0  0  0
 20 18  1  0  0  0  0
M  END
>  <MODEL>
8

>  <REMARK>
 VINA RESULT:      -4.6      1.709      2.648
  Name = shuffle_control_esm0_ligand
  12 active torsions:
  status: ('A' for Active; 'I' for Inactive)
    1  A    between atoms: C_1  and  C_2
    2  A    between atoms: C_2  and  C_3
    3  A    between atoms: C_3  and  C_4
    4  A    between atoms: C_4  and  C_5
    5  A    between atoms: C_5  and  C_6
    6  A    between atoms: C_5  and  O_8
    7  A    between atoms: C_6  and  C_7
    8  A    between atoms: O_8  and  C_9
    9  A    between atoms: C_9  and  C_11
   10  A    between atoms: C_12  and  C_13
   11  A    between atoms: C_16  and  O_17
   12  A    between atoms: O_17  and  C_18
                            x       y       z     vdW  Elec       q    Type
                         _______ _______ _______ _____ _____    ______ ____

>  <TORSDO>
F 9

$$$$
shuffle_control_esm0_ligand
 OpenBabel10092621113D

 20 20  0  0  1  0  0  0  0  0999 V2000
    5.0990    5.5220    2.6360 C   0  0  0  0  0  0  0  0  0  0  0  0
    5.0520    6.2080    1.6640 O   0  0  0  0  0  0  0  0  0  0  0  0
    3.9530    4.7010    3.1330 C   0  0  0  0  0  3  0  0  0  0  0  0
    4.0250    4.0660    4.2890 C   0  0  0  0  0  3  0  0  0  0  0  0
    2.9690    3.1300    4.7810 C   0  0  0  0  0  0  0  0  0  0  0  0
    3.1260    2.5630    6.0190 C   0  0  0  0  0  3  0  0  0  0  0  0
    2.1920    1.6650    6.5150 C   0  0  0  0  0  3  0  0  0  0  0  0
    1.0770    1.3330    5.7690 C   0  0  0  0  0  0  0  0  0  0  0  0
    0.9120    1.9170    4.5130 C   0  0  0  0  0  3  0  0  0  0  0  0
    1.8560    2.8240    4.0220 C   0  0  0  0  0  3  0  0  0  0  0  0
    0.1510    0.4550    6.2080 O   0  0  0  0  0  0  0  0  0  0  0  0
   -1.2260    0.6800    5.9120 C   0  0  0  0  0  1  0  0  0  0  0  0
    6.2210    5.4350    3.3940 O   0  0  0  0  0  0  0  0  0  0  0  0
    7.3360    6.3020    3.2140 C   0  0  2  0  0  3  0  0  0  0  0  0
    8.6500    5.5470    3.1190 C   0  0  0  0  0  2  0  0  0  0  0  0
    9.1360    5.2270    1.7350 C   0  0  0  0  0  1  0  0  0  0  0  0
    7.4120    7.2040    4.4020 C   0  0  0  0  0  2  0  0  0  0  0  0
    8.7950    7.5680    4.8190 C   0  0  0  0  0  2  0  0  0  0  0  0
   10.2050    6.7870    6.7960 C   0  0  0  0  0  1  0  0  0  0  0  0
    9.0770    7.6160    6.2910 C   0  0  0  0  0  2  0  0  0  0  0  0
  1  3  1  0  0  0  0
  1 13  1  0  0  0  0
  2  1  2  0  0  0  0
  3  4  2  0  0  0  0
  4  5  1  0  0  0  0
  5  6  1  0  0  0  0
  6  7  2  0  0  0  0
  8 11  1  0  0  0  0
  8  7  1  0  0  0  0
  9  8  2  0  0  0  0
 10  9  1  0  0  0  0
 10  5  2  0  0  0  0
 12 11  1  0  0  0  0
 14 15  1  1  0  0  0
 14 13  1  0  0  0  0
 14 17  1  0  0  0  0
 16 15  1  0  0  0  0
 17 18  1  0  0  0  0
 18 20  1  0  0  0  0
 20 19  1  0  0  0  0
M  END
>  <MODEL>
9

>  <REMARK>
 VINA RESULT:      -4.5      1.747      2.651
  Name = shuffle_control_esm0_ligand
  12 active torsions:
  status: ('A' for Active; 'I' for Inactive)
    1  A    between atoms: C_1  and  C_2
    2  A    between atoms: C_2  and  C_3
    3  A    between atoms: C_3  and  C_4
    4  A    between atoms: C_4  and  C_5
    5  A    between atoms: C_5  and  C_6
    6  A    between atoms: C_5  and  O_8
    7  A    between atoms: C_6  and  C_7
    8  A    between atoms: O_8  and  C_9
    9  A    between atoms: C_9  and  C_11
   10  A    between atoms: C_12  and  C_13
   11  A    between atoms: C_16  and  O_17
   12  A    between atoms: O_17  and  C_18
                            x       y       z     vdW  Elec       q    Type
                         _______ _______ _______ _____ _____    ______ ____

>  <TORSDO>
F 9

$$$$
