ox3_orig_f8_ligand
     RDKit          3D

 29 30  0  0  0  0  0  0  0  0999 V2000
   -3.0910   -5.6810    1.8340 C   0  0  0  0  0  0  0  0  0  0  0  0
   -2.2850   -5.4420    0.6800 O   0  0  0  0  0  0  0  0  0  0  0  0
   -1.6110   -4.2530    0.5420 C   0  0  0  0  0  0  0  0  0  0  0  0
   -1.7580   -3.2010    1.4480 C   0  0  0  0  0  0  0  0  0  0  0  0
   -1.0560   -2.0210    1.2600 C   0  0  0  0  0  0  0  0  0  0  0  0
   -0.2050   -1.8730    0.1690 C   0  0  0  0  0  0  0  0  0  0  0  0
    0.5700   -0.6030   -0.0420 C   0  0  0  0  0  0  0  0  0  0  0  0
    1.3730   -0.5670   -0.9440 O   0  0  0  0  0  0  0  0  0  0  0  0
    0.4110    0.5840    0.8340 C   0  0  0  0  0  0  0  0  0  0  0  0
   -0.8420    1.0960    1.1410 C   0  0  0  0  0  0  0  0  0  0  0  0
   -0.9560    2.2250    1.9310 C   0  0  0  0  0  0  0  0  0  0  0  0
    0.1630    2.8300    2.4680 C   0  0  0  0  0  0  0  0  0  0  0  0
    1.4180    2.3360    2.1550 C   0  0  0  0  0  0  0  0  0  0  0  0
    1.5500    1.2250    1.3210 C   0  0  0  0  0  0  0  0  0  0  0  0
   -0.0580   -2.9340   -0.7240 C   0  0  0  0  0  0  0  0  0  0  0  0
    0.7920   -2.8070   -1.7820 O   0  0  0  0  0  0  0  0  0  0  0  0
   -0.7630   -4.1150   -0.5270 C   0  0  0  0  0  0  0  0  0  0  0  0
   -2.4943   -5.5041    2.7410 H   0  0  0  0  0  0  0  0  0  0  0  0
   -3.9552   -5.0004    1.8250 H   0  0  0  0  0  0  0  0  0  0  0  0
   -3.4445   -6.7226    1.8250 H   0  0  0  0  0  0  0  0  0  0  0  0
   -2.4312   -3.3088    2.3113 H   0  0  0  0  0  0  0  0  0  0  0  0
   -1.1723   -1.1958    1.9780 H   0  0  0  0  0  0  0  0  0  0  0  0
   -1.7462    0.6026    0.7550 H   0  0  0  0  0  0  0  0  0  0  0  0
   -1.9513    2.6468    2.1344 H   0  0  0  0  0  0  0  0  0  0  0  0
    0.0584    3.6961    3.1380 H   0  0  0  0  0  0  0  0  0  0  0  0
    2.3154    2.8217    2.5658 H   0  0  0  0  0  0  0  0  0  0  0  0
    2.5497    0.8557    1.0484 H   0  0  0  0  0  0  0  0  0  0  0  0
    0.9024   -3.5552   -2.4208 H   0  0  0  0  0  0  0  0  0  0  0  0
   -0.6398   -4.9475   -1.2354 H   0  0  0  0  0  0  0  0  0  0  0  0
  2  1  1  0
  3  2  1  0
  4  3  1  0
  5  4  2  0
  6  5  1  0
  7  6  1  0
  8  7  2  0
  9  7  1  0
 10  9  2  0
 11 10  1  0
 12 11  2  0
 13 12  1  0
 14 13  2  0
 14  9  1  0
 15  6  2  0
 16 15  1  0
 17 15  1  0
 17  3  2  0
  1 18  1  0
  1 19  1  0
  1 20  1  0
  4 21  1  0
  5 22  1  0
 10 23  1  0
 11 24  1  0
 12 25  1  0
 13 26  1  0
 14 27  1  0
 16 28  1  0
 17 29  1  0
M  END
$$$$
