ox3_orig_f8_ligand
 OpenBabel10052614213D

 18 19  0  0  0  0  0  0  0  0999 V2000
   -0.2080    0.6670    0.2960 C   0  0  0  0  0  0  0  0  0  0  0  0
   -1.3660    0.0930    0.8230 C   0  0  0  0  0  3  0  0  0  0  0  0
   -1.5410   -1.2810    0.7790 C   0  0  0  0  0  3  0  0  0  0  0  0
   -0.5650   -2.0980    0.2160 C   0  0  0  0  0  0  0  0  0  0  0  0
    0.5830   -1.5130   -0.3160 C   0  0  0  0  0  0  0  0  0  0  0  0
    0.7500   -0.1340   -0.2720 C   0  0  0  0  0  3  0  0  0  0  0  0
    0.2020    2.7020    1.5580 C   0  0  0  0  0  1  0  0  0  0  0  0
    0.0160    2.0230    0.3160 O   0  0  0  0  0  0  0  0  0  0  0  0
   -0.7450   -3.5880    0.1530 C   0  0  0  0  0  0  0  0  0  0  0  0
   -0.5270   -4.2330    1.1510 O   0  0  0  0  0  0  0  0  0  0  0  0
   -1.1420   -4.2920   -1.0910 C   0  0  0  0  0  0  0  0  0  0  0  0
   -0.7280   -3.8480   -2.3400 C   0  0  0  0  0  3  0  0  0  0  0  0
   -1.1440   -4.5040   -3.4830 C   0  0  0  0  0  3  0  0  0  0  0  0
   -1.9300   -5.6370   -3.4040 C   0  0  0  0  0  3  0  0  0  0  0  0
   -2.3610   -6.0790   -2.1650 C   0  0  0  0  0  3  0  0  0  0  0  0
   -1.9870   -5.3990   -1.0050 C   0  0  0  0  0  3  0  0  0  0  0  0
    1.5330   -2.3030   -0.8920 O   0  0  0  0  0  0  0  0  0  0  0  0
    2.2550   -2.6930   -0.3380 H   0  0  0  0  0  0  0  0  0  0  0  0
  1  8  1  0  0  0  0
  1  2  1  0  0  0  0
  3  2  2  0  0  0  0
  4  3  1  0  0  0  0
  5  6  1  0  0  0  0
  5  4  2  0  0  0  0
  6  1  2  0  0  0  0
  8  7  1  0  0  0  0
  9  4  1  0  0  0  0
  9 10  2  0  0  0  0
 11 16  1  0  0  0  0
 11  9  1  0  0  0  0
 12 11  2  0  0  0  0
 13 14  2  0  0  0  0
 13 12  1  0  0  0  0
 14 15  1  0  0  0  0
 15 16  2  0  0  0  0
 17 18  1  0  0  0  0
 17  5  1  0  0  0  0
M  END
>  <MODEL>
1

>  <REMARK>
 VINA RESULT:      -7.0      0.000      0.000
  Name = ox3_orig_f8_ligand
  5 active torsions:
  status: ('A' for Active; 'I' for Inactive)
    1  A    between atoms: C_1  and  O_2
    2  A    between atoms: O_2  and  C_3
    3  A    between atoms: C_6  and  C_7
    4  A    between atoms: C_7  and  C_9
    5  A    between atoms: C_15  and  O_16
                            x       y       z     vdW  Elec       q    Type
                         _______ _______ _______ _____ _____    ______ ____

>  <TORSDO>
F 4

$$$$
ox3_orig_f8_ligand
 OpenBabel10052614213D

 18 19  0  0  0  0  0  0  0  0999 V2000
   -1.9590   -5.9650   -3.5210 C   0  0  0  0  0  0  0  0  0  0  0  0
   -1.0570   -4.9000   -3.5700 C   0  0  0  0  0  3  0  0  0  0  0  0
   -0.7450   -4.2020   -2.4140 C   0  0  0  0  0  3  0  0  0  0  0  0
   -1.3210   -4.5580   -1.1980 C   0  0  0  0  0  0  0  0  0  0  0  0
   -2.2280   -5.6170   -1.1630 C   0  0  0  0  0  0  0  0  0  0  0  0
   -2.5380   -6.3090   -2.3270 C   0  0  0  0  0  3  0  0  0  0  0  0
   -1.6850   -6.4090   -5.8930 C   0  0  0  0  0  1  0  0  0  0  0  0
   -2.3000   -6.6910   -4.6360 O   0  0  0  0  0  0  0  0  0  0  0  0
   -1.0000   -3.8040    0.0610 C   0  0  0  0  0  0  0  0  0  0  0  0
   -1.0900   -4.3880    1.1150 O   0  0  0  0  0  0  0  0  0  0  0  0
   -0.6150   -2.3710    0.0580 C   0  0  0  0  0  0  0  0  0  0  0  0
   -1.4420   -1.3970    0.6000 C   0  0  0  0  0  3  0  0  0  0  0  0
   -1.0730   -0.0660    0.5490 C   0  0  0  0  0  3  0  0  0  0  0  0
    0.1410    0.3130    0.0090 C   0  0  0  0  0  3  0  0  0  0  0  0
    0.9660   -0.6500   -0.5470 C   0  0  0  0  0  3  0  0  0  0  0  0
    0.5840   -1.9920   -0.5450 C   0  0  0  0  0  3  0  0  0  0  0  0
   -2.8160   -5.9560    0.0190 O   0  0  0  0  0  0  0  0  0  0  0  0
   -3.7760   -6.1970    0.0430 H   0  0  0  0  0  0  0  0  0  0  0  0
  1  6  1  0  0  0  0
  2  1  2  0  0  0  0
  2  3  1  0  0  0  0
  3  4  2  0  0  0  0
  4  5  1  0  0  0  0
  4  9  1  0  0  0  0
  5 17  1  0  0  0  0
  6  5  2  0  0  0  0
  7  8  1  0  0  0  0
  8  1  1  0  0  0  0
  9 10  2  0  0  0  0
 11  9  1  0  0  0  0
 11 12  1  0  0  0  0
 13 12  2  0  0  0  0
 14 13  1  0  0  0  0
 15 16  1  0  0  0  0
 15 14  2  0  0  0  0
 16 11  2  0  0  0  0
 17 18  1  0  0  0  0
M  END
>  <MODEL>
2

>  <REMARK>
 VINA RESULT:      -6.0      2.013      6.247
  Name = ox3_orig_f8_ligand
  5 active torsions:
  status: ('A' for Active; 'I' for Inactive)
    1  A    between atoms: C_1  and  O_2
    2  A    between atoms: O_2  and  C_3
    3  A    between atoms: C_6  and  C_7
    4  A    between atoms: C_7  and  C_9
    5  A    between atoms: C_15  and  O_16
                            x       y       z     vdW  Elec       q    Type
                         _______ _______ _______ _____ _____    ______ ____

>  <TORSDO>
F 4

$$$$
ox3_orig_f8_ligand
 OpenBabel10052614213D

 18 19  0  0  0  0  0  0  0  0999 V2000
   -0.4240   -3.0060   -0.3840 C   0  0  0  0  0  0  0  0  0  0  0  0
    0.7320   -2.4000   -0.8800 C   0  0  0  0  0  3  0  0  0  0  0  0
    0.9280   -1.0390   -0.7100 C   0  0  0  0  0  3  0  0  0  0  0  0
   -0.0190   -0.2670   -0.0440 C   0  0  0  0  0  0  0  0  0  0  0  0
   -1.1750   -0.8810    0.4380 C   0  0  0  0  0  0  0  0  0  0  0  0
   -1.3660   -2.2460    0.2620 C   0  0  0  0  0  3  0  0  0  0  0  0
   -0.9880   -4.8950   -1.8020 C   0  0  0  0  0  1  0  0  0  0  0  0
   -0.6660   -4.3510   -0.5220 O   0  0  0  0  0  0  0  0  0  0  0  0
    0.1750    1.2110    0.1390 C   0  0  0  0  0  0  0  0  0  0  0  0
    0.1940    1.9110   -0.8460 O   0  0  0  0  0  0  0  0  0  0  0  0
    0.3800    1.8310    1.4710 C   0  0  0  0  0  0  0  0  0  0  0  0
    0.8070    1.0840    2.5600 C   0  0  0  0  0  3  0  0  0  0  0  0
    0.9540    1.6830    3.7980 C   0  0  0  0  0  3  0  0  0  0  0  0
    0.7320    3.0360    3.9610 C   0  0  0  0  0  3  0  0  0  0  0  0
    0.2920    3.7860    2.8840 C   0  0  0  0  0  3  0  0  0  0  0  0
    0.0940    3.1860    1.6410 C   0  0  0  0  0  3  0  0  0  0  0  0
   -2.1200   -0.1300    1.0710 O   0  0  0  0  0  0  0  0  0  0  0  0
   -2.7110    0.4670    0.5460 H   0  0  0  0  0  0  0  0  0  0  0  0
  1  6  1  0  0  0  0
  2  3  1  0  0  0  0
  2  1  2  0  0  0  0
  3  4  2  0  0  0  0
  4  9  1  0  0  0  0
  4  5  1  0  0  0  0
  5 17  1  0  0  0  0
  6  5  2  0  0  0  0
  7  8  1  0  0  0  0
  8  1  1  0  0  0  0
  9 11  1  0  0  0  0
 10  9  2  0  0  0  0
 11 16  2  0  0  0  0
 11 12  1  0  0  0  0
 12 13  2  0  0  0  0
 13 14  1  0  0  0  0
 15 14  2  0  0  0  0
 16 15  1  0  0  0  0
 18 17  1  0  0  0  0
M  END
>  <MODEL>
3

>  <REMARK>
 VINA RESULT:      -5.2      1.538      6.849
  Name = ox3_orig_f8_ligand
  5 active torsions:
  status: ('A' for Active; 'I' for Inactive)
    1  A    between atoms: C_1  and  O_2
    2  A    between atoms: O_2  and  C_3
    3  A    between atoms: C_6  and  C_7
    4  A    between atoms: C_7  and  C_9
    5  A    between atoms: C_15  and  O_16
                            x       y       z     vdW  Elec       q    Type
                         _______ _______ _______ _____ _____    ______ ____

>  <TORSDO>
F 4

$$$$
ox3_orig_f8_ligand
 OpenBabel10052614213D

 18 19  0  0  0  0  0  0  0  0999 V2000
   -7.5590    4.0570   -0.1520 C   0  0  0  0  0  0  0  0  0  0  0  0
   -7.7540    3.0090    0.7500 C   0  0  0  0  0  3  0  0  0  0  0  0
   -8.4600    1.8820    0.3620 C   0  0  0  0  0  3  0  0  0  0  0  0
   -8.9770    1.7830   -0.9260 C   0  0  0  0  0  0  0  0  0  0  0  0
   -8.7850    2.8390   -1.8160 C   0  0  0  0  0  0  0  0  0  0  0  0
   -8.0780    3.9670   -1.4190 C   0  0  0  0  0  3  0  0  0  0  0  0
   -6.9780    5.7480    1.4910 C   0  0  0  0  0  1  0  0  0  0  0  0
   -6.8640    5.1940    0.1800 O   0  0  0  0  0  0  0  0  0  0  0  0
   -9.7540    0.5710   -1.3570 C   0  0  0  0  0  0  0  0  0  0  0  0
  -10.9150    0.7150   -1.6600 O   0  0  0  0  0  0  0  0  0  0  0  0
   -9.1600   -0.7880   -1.3890 C   0  0  0  0  0  0  0  0  0  0  0  0
   -8.9450   -1.5130   -0.2240 C   0  0  0  0  0  3  0  0  0  0  0  0
   -8.3570   -2.7630   -0.2830 C   0  0  0  0  0  3  0  0  0  0  0  0
   -8.0220   -3.3320   -1.4960 C   0  0  0  0  0  3  0  0  0  0  0  0
   -8.2190   -2.6110   -2.6610 C   0  0  0  0  0  3  0  0  0  0  0  0
   -8.7680   -1.3300   -2.6130 C   0  0  0  0  0  3  0  0  0  0  0  0
   -9.3090    2.7610   -3.0720 O   0  0  0  0  0  0  0  0  0  0  0  0
   -9.2870    1.9020   -3.5650 H   0  0  0  0  0  0  0  0  0  0  0  0
  1  8  1  0  0  0  0
  1  2  1  0  0  0  0
  3  2  2  0  0  0  0
  4  3  1  0  0  0  0
  5  6  1  0  0  0  0
  5  4  2  0  0  0  0
  6  1  2  0  0  0  0
  8  7  1  0  0  0  0
  9  4  1  0  0  0  0
 10  9  2  0  0  0  0
 11  9  1  0  0  0  0
 11 12  1  0  0  0  0
 13 12  2  0  0  0  0
 14 13  1  0  0  0  0
 15 16  1  0  0  0  0
 15 14  2  0  0  0  0
 16 11  2  0  0  0  0
 17  5  1  0  0  0  0
 18 17  1  0  0  0  0
M  END
>  <MODEL>
4

>  <REMARK>
 VINA RESULT:      -4.6      8.036      8.910
  Name = ox3_orig_f8_ligand
  5 active torsions:
  status: ('A' for Active; 'I' for Inactive)
    1  A    between atoms: C_1  and  O_2
    2  A    between atoms: O_2  and  C_3
    3  A    between atoms: C_6  and  C_7
    4  A    between atoms: C_7  and  C_9
    5  A    between atoms: C_15  and  O_16
                            x       y       z     vdW  Elec       q    Type
                         _______ _______ _______ _____ _____    ______ ____

>  <TORSDO>
F 4

$$$$
ox3_orig_f8_ligand
 OpenBabel10052614213D

 18 19  0  0  0  0  0  0  0  0999 V2000
   -6.8960   -6.4180    0.3520 C   0  0  0  0  0  0  0  0  0  0  0  0
   -7.0390   -6.2870   -1.0310 C   0  0  0  0  0  3  0  0  0  0  0  0
   -6.0190   -6.6970   -1.8740 C   0  0  0  0  0  3  0  0  0  0  0  0
   -4.8500   -7.2440   -1.3540 C   0  0  0  0  0  0  0  0  0  0  0  0
   -4.7140   -7.3610    0.0290 C   0  0  0  0  0  0  0  0  0  0  0  0
   -5.7400   -6.9440    0.8690 C   0  0  0  0  0  3  0  0  0  0  0  0
   -7.5520   -5.7620    2.5970 C   0  0  0  0  0  1  0  0  0  0  0  0
   -7.8770   -6.0300    1.2320 O   0  0  0  0  0  0  0  0  0  0  0  0
   -3.7320   -7.6840   -2.2560 C   0  0  0  0  0  0  0  0  0  0  0  0
   -3.6100   -8.8650   -2.4810 O   0  0  0  0  0  0  0  0  0  0  0  0
   -2.7600   -6.7300   -2.8450 C   0  0  0  0  0  0  0  0  0  0  0  0
   -2.0480   -5.8390   -2.0540 C   0  0  0  0  0  3  0  0  0  0  0  0
   -1.1760   -4.9380   -2.6360 C   0  0  0  0  0  3  0  0  0  0  0  0
   -0.9580   -4.9420   -4.0000 C   0  0  0  0  0  3  0  0  0  0  0  0
   -1.6750   -5.8160   -4.7990 C   0  0  0  0  0  3  0  0  0  0  0  0
   -2.5930   -6.7000   -4.2300 C   0  0  0  0  0  3  0  0  0  0  0  0
   -3.5630   -7.8720    0.5490 O   0  0  0  0  0  0  0  0  0  0  0  0
   -2.9810   -7.3060    1.1150 H   0  0  0  0  0  0  0  0  0  0  0  0
  1  6  1  0  0  0  0
  1  8  1  0  0  0  0
  2  1  2  0  0  0  0
  3  4  2  0  0  0  0
  3  2  1  0  0  0  0
  4  5  1  0  0  0  0
  5 17  1  0  0  0  0
  5  6  2  0  0  0  0
  8  7  1  0  0  0  0
  9  4  1  0  0  0  0
 10  9  2  0  0  0  0
 11  9  1  0  0  0  0
 11 12  1  0  0  0  0
 13 12  2  0  0  0  0
 14 13  1  0  0  0  0
 15 16  1  0  0  0  0
 15 14  2  0  0  0  0
 16 11  2  0  0  0  0
 17 18  1  0  0  0  0
M  END
>  <MODEL>
5

>  <REMARK>
 VINA RESULT:      -4.6      5.206      7.124
  Name = ox3_orig_f8_ligand
  5 active torsions:
  status: ('A' for Active; 'I' for Inactive)
    1  A    between atoms: C_1  and  O_2
    2  A    between atoms: O_2  and  C_3
    3  A    between atoms: C_6  and  C_7
    4  A    between atoms: C_7  and  C_9
    5  A    between atoms: C_15  and  O_16
                            x       y       z     vdW  Elec       q    Type
                         _______ _______ _______ _____ _____    ______ ____

>  <TORSDO>
F 4

$$$$
ox3_orig_f8_ligand
 OpenBabel10052614213D

 18 19  0  0  0  0  0  0  0  0999 V2000
   -2.4470    3.8410    7.9090 C   0  0  0  0  0  0  0  0  0  0  0  0
   -1.6740    4.6350    8.7580 C   0  0  0  0  0  3  0  0  0  0  0  0
   -0.3180    4.7940    8.5160 C   0  0  0  0  0  3  0  0  0  0  0  0
    0.2810    4.1690    7.4260 C   0  0  0  0  0  0  0  0  0  0  0  0
   -0.4990    3.3700    6.5900 C   0  0  0  0  0  0  0  0  0  0  0  0
   -1.8570    3.2140    6.8420 C   0  0  0  0  0  3  0  0  0  0  0  0
   -4.4790    2.6080    7.4130 C   0  0  0  0  0  1  0  0  0  0  0  0
   -3.7940    3.6530    8.1030 O   0  0  0  0  0  0  0  0  0  0  0  0
    1.7510    4.3240    7.1560 C   0  0  0  0  0  0  0  0  0  0  0  0
    2.4590    3.3530    7.2790 O   0  0  0  0  0  0  0  0  0  0  0  0
    2.3610    5.6240    6.7840 C   0  0  0  0  0  0  0  0  0  0  0  0
    3.6040    6.0070    7.2700 C   0  0  0  0  0  3  0  0  0  0  0  0
    4.1310    7.2410    6.9330 C   0  0  0  0  0  3  0  0  0  0  0  0
    3.4590    8.0870    6.0740 C   0  0  0  0  0  3  0  0  0  0  0  0
    2.2120    7.7210    5.5970 C   0  0  0  0  0  3  0  0  0  0  0  0
    1.6480    6.4990    5.9650 C   0  0  0  0  0  3  0  0  0  0  0  0
    0.0840    2.7350    5.5350 O   0  0  0  0  0  0  0  0  0  0  0  0
   -0.1290    3.0150    4.6100 H   0  0  0  0  0  0  0  0  0  0  0  0
  1  8  1  0  0  0  0
  1  2  1  0  0  0  0
  3  2  2  0  0  0  0
  4  3  1  0  0  0  0
  5  6  1  0  0  0  0
  5  4  2  0  0  0  0
  6  1  2  0  0  0  0
  7  8  1  0  0  0  0
  9 10  2  0  0  0  0
  9  4  1  0  0  0  0
 11  9  1  0  0  0  0
 11 12  1  0  0  0  0
 13 12  2  0  0  0  0
 14 13  1  0  0  0  0
 15 16  1  0  0  0  0
 15 14  2  0  0  0  0
 16 11  2  0  0  0  0
 17  5  1  0  0  0  0
 18 17  1  0  0  0  0
M  END
>  <MODEL>
6

>  <REMARK>
 VINA RESULT:      -4.5      9.498     11.758
  Name = ox3_orig_f8_ligand
  5 active torsions:
  status: ('A' for Active; 'I' for Inactive)
    1  A    between atoms: C_1  and  O_2
    2  A    between atoms: O_2  and  C_3
    3  A    between atoms: C_6  and  C_7
    4  A    between atoms: C_7  and  C_9
    5  A    between atoms: C_15  and  O_16
                            x       y       z     vdW  Elec       q    Type
                         _______ _______ _______ _____ _____    ______ ____

>  <TORSDO>
F 4

$$$$
ox3_orig_f8_ligand
 OpenBabel10052614213D

 18 19  0  0  0  0  0  0  0  0999 V2000
   -7.6160    4.1280   -0.1700 C   0  0  0  0  0  0  0  0  0  0  0  0
   -8.0760    3.9200   -1.4720 C   0  0  0  0  0  3  0  0  0  0  0  0
   -8.7910    2.7740   -1.7800 C   0  0  0  0  0  3  0  0  0  0  0  0
   -9.0610    1.8260   -0.7980 C   0  0  0  0  0  0  0  0  0  0  0  0
   -8.5880    2.0390    0.4970 C   0  0  0  0  0  0  0  0  0  0  0  0
   -7.8690    3.1890    0.7970 C   0  0  0  0  0  3  0  0  0  0  0  0
   -7.0030    5.7650    1.5170 C   0  0  0  0  0  1  0  0  0  0  0  0
   -6.9050    5.2470    0.1900 O   0  0  0  0  0  0  0  0  0  0  0  0
   -9.8270    0.5740   -1.1200 C   0  0  0  0  0  0  0  0  0  0  0  0
  -11.0020    0.5370   -0.8430 O   0  0  0  0  0  0  0  0  0  0  0  0
   -9.1870   -0.6190   -1.7260 C   0  0  0  0  0  0  0  0  0  0  0  0
   -9.0080   -0.7270   -3.0980 C   0  0  0  0  0  3  0  0  0  0  0  0
   -8.4410   -1.8680   -3.6370 C   0  0  0  0  0  3  0  0  0  0  0  0
   -7.9990   -2.8910   -2.8220 C   0  0  0  0  0  3  0  0  0  0  0  0
   -8.1870   -2.8000   -1.4540 C   0  0  0  0  0  3  0  0  0  0  0  0
   -8.8000   -1.6750   -0.9010 C   0  0  0  0  0  3  0  0  0  0  0  0
   -8.8270    1.1040    1.4600 O   0  0  0  0  0  0  0  0  0  0  0  0
   -9.7520    0.9380    1.7700 H   0  0  0  0  0  0  0  0  0  0  0  0
  1  8  1  0  0  0  0
  1  6  1  0  0  0  0
  2  1  2  0  0  0  0
  3  2  1  0  0  0  0
  3  4  2  0  0  0  0
  4  5  1  0  0  0  0
  5  6  2  0  0  0  0
  5 17  1  0  0  0  0
  8  7  1  0  0  0  0
  9 10  2  0  0  0  0
  9  4  1  0  0  0  0
 11  9  1  0  0  0  0
 11 16  1  0  0  0  0
 12 11  2  0  0  0  0
 13 12  1  0  0  0  0
 13 14  2  0  0  0  0
 14 15  1  0  0  0  0
 15 16  2  0  0  0  0
 17 18  1  0  0  0  0
M  END
>  <MODEL>
7

>  <REMARK>
 VINA RESULT:      -4.5      8.043      8.845
  Name = ox3_orig_f8_ligand
  5 active torsions:
  status: ('A' for Active; 'I' for Inactive)
    1  A    between atoms: C_1  and  O_2
    2  A    between atoms: O_2  and  C_3
    3  A    between atoms: C_6  and  C_7
    4  A    between atoms: C_7  and  C_9
    5  A    between atoms: C_15  and  O_16
                            x       y       z     vdW  Elec       q    Type
                         _______ _______ _______ _____ _____    ______ ____

>  <TORSDO>
F 4

$$$$
ox3_orig_f8_ligand
 OpenBabel10052614213D

 18 19  0  0  0  0  0  0  0  0999 V2000
   -8.4460   -2.5180   -0.0680 C   0  0  0  0  0  0  0  0  0  0  0  0
   -8.6000   -1.4300   -0.9300 C   0  0  0  0  0  3  0  0  0  0  0  0
   -8.4820   -1.6090   -2.2990 C   0  0  0  0  0  3  0  0  0  0  0  0
   -8.2150   -2.8690   -2.8260 C   0  0  0  0  0  0  0  0  0  0  0  0
   -8.0540   -3.9460   -1.9550 C   0  0  0  0  0  0  0  0  0  0  0  0
   -8.1700   -3.7590   -0.5830 C   0  0  0  0  0  3  0  0  0  0  0  0
   -8.4660   -3.5530    2.1290 C   0  0  0  0  0  1  0  0  0  0  0  0
   -8.5560   -2.3970    1.2960 O   0  0  0  0  0  0  0  0  0  0  0  0
   -8.0750   -3.0750   -4.3080 C   0  0  0  0  0  0  0  0  0  0  0  0
   -8.9000   -3.7550   -4.8700 O   0  0  0  0  0  0  0  0  0  0  0  0
   -6.9480   -2.5090   -5.0890 C   0  0  0  0  0  0  0  0  0  0  0  0
   -7.0930   -1.3480   -5.8350 C   0  0  0  0  0  3  0  0  0  0  0  0
   -6.0350   -0.8650   -6.5820 C   0  0  0  0  0  3  0  0  0  0  0  0
   -4.8060   -1.4950   -6.5590 C   0  0  0  0  0  3  0  0  0  0  0  0
   -4.6550   -2.6630   -5.8310 C   0  0  0  0  0  3  0  0  0  0  0  0
   -5.7290   -3.1870   -5.1100 C   0  0  0  0  0  3  0  0  0  0  0  0
   -7.7680   -5.1800   -2.4610 O   0  0  0  0  0  0  0  0  0  0  0  0
   -6.8700   -5.5730   -2.3260 H   0  0  0  0  0  0  0  0  0  0  0  0
  1  8  1  0  0  0  0
  2  1  2  0  0  0  0
  3  2  1  0  0  0  0
  4  3  2  0  0  0  0
  4  5  1  0  0  0  0
  5  6  2  0  0  0  0
  6  1  1  0  0  0  0
  8  7  1  0  0  0  0
  9  4  1  0  0  0  0
 10  9  2  0  0  0  0
 11  9  1  0  0  0  0
 12 11  2  0  0  0  0
 13 14  2  0  0  0  0
 13 12  1  0  0  0  0
 14 15  1  0  0  0  0
 15 16  2  0  0  0  0
 16 11  1  0  0  0  0
 17 18  1  0  0  0  0
 17  5  1  0  0  0  0
M  END
>  <MODEL>
8

>  <REMARK>
 VINA RESULT:      -4.5      7.435      8.347
  Name = ox3_orig_f8_ligand
  5 active torsions:
  status: ('A' for Active; 'I' for Inactive)
    1  A    between atoms: C_1  and  O_2
    2  A    between atoms: O_2  and  C_3
    3  A    between atoms: C_6  and  C_7
    4  A    between atoms: C_7  and  C_9
    5  A    between atoms: C_15  and  O_16
                            x       y       z     vdW  Elec       q    Type
                         _______ _______ _______ _____ _____    ______ ____

>  <TORSDO>
F 4

$$$$
ox3_orig_f8_ligand
 OpenBabel10052614213D

 18 19  0  0  0  0  0  0  0  0999 V2000
   -0.9960   -4.6350   -2.0490 C   0  0  0  0  0  0  0  0  0  0  0  0
   -1.0280   -4.6540   -3.4450 C   0  0  0  0  0  3  0  0  0  0  0  0
   -1.8380   -5.5620   -4.1080 C   0  0  0  0  0  3  0  0  0  0  0  0
   -2.6260   -6.4570   -3.3920 C   0  0  0  0  0  0  0  0  0  0  0  0
   -2.5790   -6.4360   -1.9980 C   0  0  0  0  0  0  0  0  0  0  0  0
   -1.7630   -5.5240   -1.3410 C   0  0  0  0  0  3  0  0  0  0  0  0
   -0.6230   -3.3070   -0.0500 C   0  0  0  0  0  1  0  0  0  0  0  0
   -0.2140   -3.7540   -1.3430 O   0  0  0  0  0  0  0  0  0  0  0  0
   -3.5020   -7.4540   -4.0970 C   0  0  0  0  0  0  0  0  0  0  0  0
   -4.6690   -7.1830   -4.2490 O   0  0  0  0  0  0  0  0  0  0  0  0
   -2.9940   -8.7640   -4.5760 C   0  0  0  0  0  0  0  0  0  0  0  0
   -3.2090   -9.9320   -3.8570 C   0  0  0  0  0  3  0  0  0  0  0  0
   -2.6930  -11.1310   -4.3110 C   0  0  0  0  0  3  0  0  0  0  0  0
   -2.0030  -11.1990   -5.5050 C   0  0  0  0  0  3  0  0  0  0  0  0
   -1.7700  -10.0370   -6.2220 C   0  0  0  0  0  3  0  0  0  0  0  0
   -2.2450   -8.8120   -5.7510 C   0  0  0  0  0  3  0  0  0  0  0  0
   -3.3300   -7.3260   -1.2880 O   0  0  0  0  0  0  0  0  0  0  0  0
   -4.3080   -7.3750   -1.4340 H   0  0  0  0  0  0  0  0  0  0  0  0
  1  8  1  0  0  0  0
  1  6  1  0  0  0  0
  2  1  2  0  0  0  0
  3  2  1  0  0  0  0
  3  4  2  0  0  0  0
  4  5  1  0  0  0  0
  5  6  2  0  0  0  0
  5 17  1  0  0  0  0
  8  7  1  0  0  0  0
  9  4  1  0  0  0  0
 10  9  2  0  0  0  0
 11  9  1  0  0  0  0
 11 12  1  0  0  0  0
 13 12  2  0  0  0  0
 14 13  1  0  0  0  0
 15 16  1  0  0  0  0
 15 14  2  0  0  0  0
 16 11  2  0  0  0  0
 18 17  1  0  0  0  0
M  END
>  <MODEL>
9

>  <REMARK>
 VINA RESULT:      -4.4      3.697      6.313
  Name = ox3_orig_f8_ligand
  5 active torsions:
  status: ('A' for Active; 'I' for Inactive)
    1  A    between atoms: C_1  and  O_2
    2  A    between atoms: O_2  and  C_3
    3  A    between atoms: C_6  and  C_7
    4  A    between atoms: C_7  and  C_9
    5  A    between atoms: C_15  and  O_16
                            x       y       z     vdW  Elec       q    Type
                         _______ _______ _______ _____ _____    ______ ____

>  <TORSDO>
F 4

$$$$
