bg33_2_ligand
     RDKit          3D

 44 44  0  0  0  0  0  0  0  0999 V2000
    3.9093   -4.5151    3.8239 C   0  0  0  0  0  0  0  0  0  0  0  0
    2.8948   -4.2816    2.6901 C   0  0  0  0  0  0  0  0  0  0  0  0
    1.9046   -3.2200    3.0945 C   0  0  0  0  0  0  0  0  0  0  0  0
    0.8408   -2.9599    2.0144 C   0  0  0  0  0  0  0  0  0  0  0  0
   -0.2591   -2.0794    2.5349 C   0  0  1  0  0  0  0  0  0  0  0  0
   -0.8844   -2.7575    3.7374 C   0  0  0  0  0  0  0  0  0  0  0  0
   -1.9034   -3.8695    3.2694 C   0  0  0  0  0  0  0  0  0  0  0  0
    0.2385   -0.7304    2.8070 O   0  0  0  0  0  0  0  0  0  0  0  0
    0.4612    0.1401    1.7015 C   0  0  0  0  0  0  0  0  0  0  0  0
    0.1989   -0.2535    0.5867 O   0  0  0  0  0  0  0  0  0  0  0  0
    1.0716    1.4995    1.8739 C   0  0  0  0  0  0  0  0  0  0  0  0
    1.1838    2.1504    3.0757 C   0  0  0  0  0  0  0  0  0  0  0  0
    1.9448    3.4508    3.1668 C   0  0  0  0  0  0  0  0  0  0  0  0
    2.7718    3.8504    2.1365 C   0  0  0  0  0  0  0  0  0  0  0  0
    3.4693    5.0469    2.2797 C   0  0  0  0  0  0  0  0  0  0  0  0
    3.3713    5.8495    3.4082 C   0  0  0  0  0  0  0  0  0  0  0  0
    4.1094    7.0223    3.5303 O   0  0  0  0  0  0  0  0  0  0  0  0
    4.0188    7.9219    2.4176 C   0  0  0  0  0  0  0  0  0  0  0  0
    2.5574    5.4107    4.4243 C   0  0  0  0  0  0  0  0  0  0  0  0
    1.8343    4.2158    4.3115 C   0  0  0  0  0  0  0  0  0  0  0  0
    4.1536   -3.5544    4.3008 H   0  0  0  0  0  0  0  0  0  0  0  0
    3.4741   -5.1952    4.5709 H   0  0  0  0  0  0  0  0  0  0  0  0
    4.8252   -4.9624    3.4101 H   0  0  0  0  0  0  0  0  0  0  0  0
    3.4286   -3.9561    1.7851 H   0  0  0  0  0  0  0  0  0  0  0  0
    2.3565   -5.2196    2.4888 H   0  0  0  0  0  0  0  0  0  0  0  0
    1.3988   -3.5430    4.0163 H   0  0  0  0  0  0  0  0  0  0  0  0
    2.4628   -2.2840    3.2440 H   0  0  0  0  0  0  0  0  0  0  0  0
    1.3168   -2.4679    1.1534 H   0  0  0  0  0  0  0  0  0  0  0  0
    0.4032   -3.9245    1.7177 H   0  0  0  0  0  0  0  0  0  0  0  0
   -1.0471   -1.9460    1.7789 H   0  0  0  0  0  0  0  0  0  0  0  0
   -0.0934   -3.2221    4.3444 H   0  0  0  0  0  0  0  0  0  0  0  0
   -1.4230   -2.0057    4.3331 H   0  0  0  0  0  0  0  0  0  0  0  0
   -2.8442   -3.3951    2.9533 H   0  0  0  0  0  0  0  0  0  0  0  0
   -1.4735   -4.4291    2.4256 H   0  0  0  0  0  0  0  0  0  0  0  0
   -2.1024   -4.5588    4.1032 H   0  0  0  0  0  0  0  0  0  0  0  0
    1.4547    2.0079    0.9768 H   0  0  0  0  0  0  0  0  0  0  0  0
    0.7179    1.7235    3.9760 H   0  0  0  0  0  0  0  0  0  0  0  0
    2.8771    3.2403    1.2273 H   0  0  0  0  0  0  0  0  0  0  0  0
    4.1285    5.3711    1.4609 H   0  0  0  0  0  0  0  0  0  0  0  0
    3.8438    8.9437    2.7855 H   0  0  0  0  0  0  0  0  0  0  0  0
    4.9582    7.8939    1.8459 H   0  0  0  0  0  0  0  0  0  0  0  0
    3.1848    7.6185    1.7677 H   0  0  0  0  0  0  0  0  0  0  0  0
    2.4717    6.0088    5.3434 H   0  0  0  0  0  0  0  0  0  0  0  0
    1.1801    3.8878    5.1327 H   0  0  0  0  0  0  0  0  0  0  0  0
  2  1  1  0
  3  2  1  0
  4  3  1  0
  5  4  1  0
  6  5  1  0
  7  6  1  0
  8  5  1  0
  9  8  1  0
 10  9  2  0
 11  9  1  0
 12 11  2  3
 13 12  1  0
 14 13  1  0
 15 14  2  0
 16 15  1  0
 17 16  1  0
 18 17  1  0
 19 16  2  0
 20 19  1  0
 20 13  2  0
  1 21  1  0
  1 22  1  0
  1 23  1  0
  2 24  1  0
  2 25  1  0
  3 26  1  0
  3 27  1  0
  4 28  1  0
  4 29  1  0
  5 30  1  6
  6 31  1  0
  6 32  1  0
  7 33  1  0
  7 34  1  0
  7 35  1  0
 11 36  1  0
 12 37  1  0
 14 38  1  0
 15 39  1  0
 18 40  1  0
 18 41  1  0
 18 42  1  0
 19 43  1  0
 20 44  1  0
M  END
$$$$
