bg33_2_ligand
 OpenBabel10092621153D

 20 20  0  0  1  0  0  0  0  0999 V2000
    1.6650   -4.6560   -6.5470 C   0  0  0  0  0  0  0  0  0  0  0  0
    1.1990   -5.7580   -6.3580 O   0  0  0  0  0  0  0  0  0  0  0  0
    0.7590   -3.4600   -6.5060 C   0  0  0  0  0  3  0  0  0  0  0  0
    0.5180   -2.6370   -7.5750 C   0  0  0  0  0  3  0  0  0  0  0  0
   -0.5210   -1.5460   -7.4740 C   0  0  0  0  0  0  0  0  0  0  0  0
   -1.6820   -1.6160   -8.2180 C   0  0  0  0  0  3  0  0  0  0  0  0
   -2.5980   -0.5730   -8.1050 C   0  0  0  0  0  3  0  0  0  0  0  0
   -2.3940    0.5280   -7.2850 C   0  0  0  0  0  0  0  0  0  0  0  0
   -1.2180    0.5760   -6.5770 C   0  0  0  0  0  3  0  0  0  0  0  0
   -0.2770   -0.4590   -6.6590 C   0  0  0  0  0  3  0  0  0  0  0  0
   -3.3160    1.5670   -7.2240 O   0  0  0  0  0  0  0  0  0  0  0  0
   -4.6560    1.2210   -7.5970 C   0  0  0  0  0  1  0  0  0  0  0  0
    3.0480   -4.5420   -6.8650 O   0  0  0  0  0  0  0  0  0  0  0  0
    4.0150   -4.5780   -5.7680 C   0  0  2  0  0  3  0  0  0  0  0  0
    4.8270   -5.8560   -5.7070 C   0  0  0  0  0  2  0  0  0  0  0  0
    6.3700   -5.5270   -5.7740 C   0  0  0  0  0  1  0  0  0  0  0  0
    3.3300   -4.3900   -4.4440 C   0  0  0  0  0  2  0  0  0  0  0  0
    3.8870   -3.1640   -3.6990 C   0  0  0  0  0  2  0  0  0  0  0  0
    1.6470   -2.1740   -3.2220 C   0  0  0  0  0  1  0  0  0  0  0  0
    2.9650   -2.6800   -2.6090 C   0  0  0  0  0  2  0  0  0  0  0  0
  1  3  1  0  0  0  0
  1  2  2  0  0  0  0
  4  5  1  0  0  0  0
  4  3  2  0  0  0  0
  5 10  1  0  0  0  0
  6  7  1  0  0  0  0
  6  5  2  0  0  0  0
  7  8  2  0  0  0  0
  8 11  1  0  0  0  0
  8  9  1  0  0  0  0
 10  9  2  0  0  0  0
 12 11  1  0  0  0  0
 13  1  1  0  0  0  0
 13 14  1  0  0  0  0
 14 15  1  1  0  0  0
 14 17  1  0  0  0  0
 16 15  1  0  0  0  0
 17 18  1  0  0  0  0
 18 20  1  0  0  0  0
 19 20  1  0  0  0  0
M  END
>  <MODEL>
1

>  <REMARK>
 VINA RESULT:      -4.4      0.000      0.000
  Name = bg33_2_ligand
  12 active torsions:
  status: ('A' for Active; 'I' for Inactive)
    1  A    between atoms: C_1  and  C_2
    2  A    between atoms: C_2  and  C_3
    3  A    between atoms: C_3  and  C_4
    4  A    between atoms: C_4  and  C_5
    5  A    between atoms: C_5  and  C_6
    6  A    between atoms: C_5  and  O_8
    7  A    between atoms: C_6  and  C_7
    8  A    between atoms: O_8  and  C_9
    9  A    between atoms: C_9  and  C_11
   10  A    between atoms: C_12  and  C_13
   11  A    between atoms: C_16  and  O_17
   12  A    between atoms: O_17  and  C_18
                            x       y       z     vdW  Elec       q    Type
                         _______ _______ _______ _____ _____    ______ ____

>  <TORSDO>
F 9

$$$$
bg33_2_ligand
 OpenBabel10092621153D

 20 20  0  0  1  0  0  0  0  0999 V2000
   -0.0470   -3.6760   -7.7230 C   0  0  0  0  0  0  0  0  0  0  0  0
   -1.0960   -4.1440   -8.1050 O   0  0  0  0  0  0  0  0  0  0  0  0
    0.0760   -2.1890   -7.5600 C   0  0  0  0  0  3  0  0  0  0  0  0
   -0.9610   -1.3070   -7.7150 C   0  0  0  0  0  3  0  0  0  0  0  0
   -0.7700    0.1550   -7.3880 C   0  0  0  0  0  0  0  0  0  0  0  0
    0.2840    0.8610   -7.9330 C   0  0  0  0  0  3  0  0  0  0  0  0
    0.4280    2.2000   -7.5800 C   0  0  0  0  0  3  0  0  0  0  0  0
   -0.4330    2.8510   -6.7080 C   0  0  0  0  0  0  0  0  0  0  0  0
   -1.4570    2.1130   -6.1670 C   0  0  0  0  0  3  0  0  0  0  0  0
   -1.6390    0.7650   -6.5050 C   0  0  0  0  0  3  0  0  0  0  0  0
   -0.2370    4.1810   -6.3530 O   0  0  0  0  0  0  0  0  0  0  0  0
   -0.5350    4.5030   -4.9890 C   0  0  0  0  0  1  0  0  0  0  0  0
    1.0550   -4.5510   -7.5020 O   0  0  0  0  0  0  0  0  0  0  0  0
    1.8830   -4.3330   -6.3150 C   0  0  2  0  0  3  0  0  0  0  0  0
    3.1740   -5.1260   -6.3140 C   0  0  0  0  0  2  0  0  0  0  0  0
    3.0690   -6.3440   -7.3130 C   0  0  0  0  0  1  0  0  0  0  0  0
    1.1220   -4.6660   -5.0630 C   0  0  0  0  0  2  0  0  0  0  0  0
    2.0180   -4.5410   -3.8180 C   0  0  0  0  0  2  0  0  0  0  0  0
    1.9380   -2.1650   -3.0600 C   0  0  0  0  0  1  0  0  0  0  0  0
    1.4490   -3.5990   -2.7870 C   0  0  0  0  0  2  0  0  0  0  0  0
  1  3  1  0  0  0  0
  1 13  1  0  0  0  0
  2  1  2  0  0  0  0
  4  3  2  0  0  0  0
  4  5  1  0  0  0  0
  5 10  1  0  0  0  0
  6  7  1  0  0  0  0
  6  5  2  0  0  0  0
  7  8  2  0  0  0  0
  8 11  1  0  0  0  0
  8  9  1  0  0  0  0
 10  9  2  0  0  0  0
 11 12  1  0  0  0  0
 13 14  1  0  0  0  0
 14 15  1  6  0  0  0
 14 17  1  0  0  0  0
 16 15  1  0  0  0  0
 17 18  1  0  0  0  0
 18 20  1  0  0  0  0
 19 20  1  0  0  0  0
M  END
>  <MODEL>
2

>  <REMARK>
 VINA RESULT:      -4.3      2.061      2.842
  Name = bg33_2_ligand
  12 active torsions:
  status: ('A' for Active; 'I' for Inactive)
    1  A    between atoms: C_1  and  C_2
    2  A    between atoms: C_2  and  C_3
    3  A    between atoms: C_3  and  C_4
    4  A    between atoms: C_4  and  C_5
    5  A    between atoms: C_5  and  C_6
    6  A    between atoms: C_5  and  O_8
    7  A    between atoms: C_6  and  C_7
    8  A    between atoms: O_8  and  C_9
    9  A    between atoms: C_9  and  C_11
   10  A    between atoms: C_12  and  C_13
   11  A    between atoms: C_16  and  O_17
   12  A    between atoms: O_17  and  C_18
                            x       y       z     vdW  Elec       q    Type
                         _______ _______ _______ _____ _____    ______ ____

>  <TORSDO>
F 9

$$$$
bg33_2_ligand
 OpenBabel10092621153D

 20 20  0  0  1  0  0  0  0  0999 V2000
    2.2160   -2.5580   -2.9230 C   0  0  0  0  0  0  0  0  0  0  0  0
    1.9920   -1.6160   -2.1960 O   0  0  0  0  0  0  0  0  0  0  0  0
    1.1860   -3.6420   -3.0560 C   0  0  0  0  0  3  0  0  0  0  0  0
    0.6890   -4.3680   -2.0050 C   0  0  0  0  0  3  0  0  0  0  0  0
   -0.4500   -5.3360   -2.2230 C   0  0  0  0  0  0  0  0  0  0  0  0
   -0.6100   -5.9630   -3.4420 C   0  0  0  0  0  3  0  0  0  0  0  0
   -1.6900   -6.8290   -3.5980 C   0  0  0  0  0  3  0  0  0  0  0  0
   -2.6070   -7.0840   -2.5890 C   0  0  0  0  0  0  0  0  0  0  0  0
   -2.4310   -6.4250   -1.3960 C   0  0  0  0  0  3  0  0  0  0  0  0
   -1.3510   -5.5540   -1.2000 C   0  0  0  0  0  3  0  0  0  0  0  0
   -3.6930   -7.9290   -2.7930 O   0  0  0  0  0  0  0  0  0  0  0  0
   -3.4590   -9.0230   -3.6890 C   0  0  0  0  0  1  0  0  0  0  0  0
    3.4790   -2.6350   -3.5770 O   0  0  0  0  0  0  0  0  0  0  0  0
    4.0450   -3.9600   -3.8320 C   0  0  2  0  0  3  0  0  0  0  0  0
    5.3810   -4.1960   -3.1600 C   0  0  0  0  0  2  0  0  0  0  0  0
    5.2560   -3.9730   -1.6010 C   0  0  0  0  0  1  0  0  0  0  0  0
    4.2090   -4.1960   -5.3070 C   0  0  0  0  0  2  0  0  0  0  0  0
    3.0520   -5.0410   -5.8680 C   0  0  0  0  0  2  0  0  0  0  0  0
    0.7260   -4.5330   -6.6150 C   0  0  0  0  0  1  0  0  0  0  0  0
    2.2230   -4.2910   -6.8780 C   0  0  0  0  0  2  0  0  0  0  0  0
  1  2  2  0  0  0  0
  3  1  1  0  0  0  0
  3  4  2  0  0  0  0
  5  4  1  0  0  0  0
  5 10  1  0  0  0  0
  6  5  2  0  0  0  0
  7  6  1  0  0  0  0
  7  8  2  0  0  0  0
  8  9  1  0  0  0  0
  9 10  2  0  0  0  0
 11  8  1  0  0  0  0
 12 11  1  0  0  0  0
 13  1  1  0  0  0  0
 14 17  1  6  0  0  0
 14 13  1  0  0  0  0
 14 15  1  0  0  0  0
 15 16  1  0  0  0  0
 18 17  1  0  0  0  0
 20 19  1  0  0  0  0
 20 18  1  0  0  0  0
M  END
>  <MODEL>
3

>  <REMARK>
 VINA RESULT:      -4.2      4.027      6.282
  Name = bg33_2_ligand
  12 active torsions:
  status: ('A' for Active; 'I' for Inactive)
    1  A    between atoms: C_1  and  C_2
    2  A    between atoms: C_2  and  C_3
    3  A    between atoms: C_3  and  C_4
    4  A    between atoms: C_4  and  C_5
    5  A    between atoms: C_5  and  C_6
    6  A    between atoms: C_5  and  O_8
    7  A    between atoms: C_6  and  C_7
    8  A    between atoms: O_8  and  C_9
    9  A    between atoms: C_9  and  C_11
   10  A    between atoms: C_12  and  C_13
   11  A    between atoms: C_16  and  O_17
   12  A    between atoms: O_17  and  C_18
                            x       y       z     vdW  Elec       q    Type
                         _______ _______ _______ _____ _____    ______ ____

>  <TORSDO>
F 9

$$$$
bg33_2_ligand
 OpenBabel10092621153D

 20 20  0  0  1  0  0  0  0  0999 V2000
    5.5360   -5.0610   -4.8690 C   0  0  0  0  0  0  0  0  0  0  0  0
    6.6120   -5.0430   -5.4240 O   0  0  0  0  0  0  0  0  0  0  0  0
    4.3000   -4.7320   -5.6540 C   0  0  0  0  0  3  0  0  0  0  0  0
    3.1640   -5.5000   -5.6650 C   0  0  0  0  0  3  0  0  0  0  0  0
    1.9230   -5.0080   -6.3700 C   0  0  0  0  0  0  0  0  0  0  0  0
    1.9810   -3.9070   -7.2000 C   0  0  0  0  0  3  0  0  0  0  0  0
    0.8030   -3.4810   -7.8090 C   0  0  0  0  0  3  0  0  0  0  0  0
   -0.4190   -4.1100   -7.6160 C   0  0  0  0  0  0  0  0  0  0  0  0
   -0.4450   -5.1890   -6.7660 C   0  0  0  0  0  3  0  0  0  0  0  0
    0.7220   -5.6510   -6.1430 C   0  0  0  0  0  3  0  0  0  0  0  0
   -1.5810   -3.6350   -8.2150 O   0  0  0  0  0  0  0  0  0  0  0  0
   -2.7390   -4.4640   -8.0500 C   0  0  0  0  0  1  0  0  0  0  0  0
    5.4900   -5.3330   -3.4720 O   0  0  0  0  0  0  0  0  0  0  0  0
    5.1100   -4.2470   -2.5690 C   0  0  2  0  0  3  0  0  0  0  0  0
    6.2360   -3.7670   -1.6770 C   0  0  0  0  0  2  0  0  0  0  0  0
    7.4670   -4.7530   -1.7730 C   0  0  0  0  0  1  0  0  0  0  0  0
    3.9570   -4.6550   -1.6960 C   0  0  0  0  0  2  0  0  0  0  0  0
    2.6300   -4.0760   -2.2190 C   0  0  0  0  0  2  0  0  0  0  0  0
    1.6960   -2.3370   -3.7440 C   0  0  0  0  0  1  0  0  0  0  0  0
    2.7640   -2.6470   -2.6810 C   0  0  0  0  0  2  0  0  0  0  0  0
  1 13  1  0  0  0  0
  2  1  2  0  0  0  0
  3  1  1  0  0  0  0
  4  3  2  0  0  0  0
  5 10  1  0  0  0  0
  5  4  1  0  0  0  0
  6  5  2  0  0  0  0
  7  8  2  0  0  0  0
  7  6  1  0  0  0  0
  8  9  1  0  0  0  0
  9 10  2  0  0  0  0
 11 12  1  0  0  0  0
 11  8  1  0  0  0  0
 13 14  1  0  0  0  0
 14 17  1  1  0  0  0
 14 15  1  0  0  0  0
 16 15  1  0  0  0  0
 18 17  1  0  0  0  0
 19 20  1  0  0  0  0
 20 18  1  0  0  0  0
M  END
>  <MODEL>
4

>  <REMARK>
 VINA RESULT:      -4.1      3.144      4.355
  Name = bg33_2_ligand
  12 active torsions:
  status: ('A' for Active; 'I' for Inactive)
    1  A    between atoms: C_1  and  C_2
    2  A    between atoms: C_2  and  C_3
    3  A    between atoms: C_3  and  C_4
    4  A    between atoms: C_4  and  C_5
    5  A    between atoms: C_5  and  C_6
    6  A    between atoms: C_5  and  O_8
    7  A    between atoms: C_6  and  C_7
    8  A    between atoms: O_8  and  C_9
    9  A    between atoms: C_9  and  C_11
   10  A    between atoms: C_12  and  C_13
   11  A    between atoms: C_16  and  O_17
   12  A    between atoms: O_17  and  C_18
                            x       y       z     vdW  Elec       q    Type
                         _______ _______ _______ _____ _____    ______ ____

>  <TORSDO>
F 9

$$$$
bg33_2_ligand
 OpenBabel10092621153D

 20 20  0  0  1  0  0  0  0  0999 V2000
    1.9180   -4.7630   -6.5290 C   0  0  0  0  0  0  0  0  0  0  0  0
    1.5520   -5.1510   -7.6160 O   0  0  0  0  0  0  0  0  0  0  0  0
    0.9660   -4.8220   -5.3700 C   0  0  0  0  0  3  0  0  0  0  0  0
    0.6250   -5.9740   -4.7090 C   0  0  0  0  0  3  0  0  0  0  0  0
   -0.2280   -5.9100   -3.4640 C   0  0  0  0  0  0  0  0  0  0  0  0
   -1.4770   -6.4970   -3.4420 C   0  0  0  0  0  3  0  0  0  0  0  0
   -2.2320   -6.3890   -2.2770 C   0  0  0  0  0  3  0  0  0  0  0  0
   -1.7870   -5.7190   -1.1460 C   0  0  0  0  0  0  0  0  0  0  0  0
   -0.5490   -5.1270   -1.2100 C   0  0  0  0  0  3  0  0  0  0  0  0
    0.2420   -5.2220   -2.3620 C   0  0  0  0  0  3  0  0  0  0  0  0
   -2.5840   -5.6030   -0.0110 O   0  0  0  0  0  0  0  0  0  0  0  0
   -1.8860   -5.2780    1.1980 C   0  0  0  0  0  1  0  0  0  0  0  0
    3.2220   -4.2050   -6.4040 O   0  0  0  0  0  0  0  0  0  0  0  0
    4.2710   -5.0270   -5.7990 C   0  0  2  0  0  3  0  0  0  0  0  0
    4.1340   -6.5070   -6.0890 C   0  0  0  0  0  2  0  0  0  0  0  0
    4.0060   -7.3190   -4.7400 C   0  0  0  0  0  1  0  0  0  0  0  0
    4.3060   -4.8380   -4.3080 C   0  0  0  0  0  2  0  0  0  0  0  0
    4.1550   -3.3540   -3.9310 C   0  0  0  0  0  2  0  0  0  0  0  0
    2.2080   -2.0880   -3.0190 C   0  0  0  0  0  1  0  0  0  0  0  0
    3.2820   -3.1490   -2.7200 C   0  0  0  0  0  2  0  0  0  0  0  0
  1 13  1  0  0  0  0
  1  3  1  0  0  0  0
  2  1  2  0  0  0  0
  3  4  2  0  0  0  0
  4  5  1  0  0  0  0
  5  6  2  0  0  0  0
  5 10  1  0  0  0  0
  6  7  1  0  0  0  0
  7  8  2  0  0  0  0
  8 11  1  0  0  0  0
  9  8  1  0  0  0  0
 10  9  2  0  0  0  0
 11 12  1  0  0  0  0
 13 14  1  0  0  0  0
 14 15  1  1  0  0  0
 14 17  1  0  0  0  0
 15 16  1  0  0  0  0
 17 18  1  0  0  0  0
 18 20  1  0  0  0  0
 19 20  1  0  0  0  0
M  END
>  <MODEL>
5

>  <REMARK>
 VINA RESULT:      -4.1      4.130      5.475
  Name = bg33_2_ligand
  12 active torsions:
  status: ('A' for Active; 'I' for Inactive)
    1  A    between atoms: C_1  and  C_2
    2  A    between atoms: C_2  and  C_3
    3  A    between atoms: C_3  and  C_4
    4  A    between atoms: C_4  and  C_5
    5  A    between atoms: C_5  and  C_6
    6  A    between atoms: C_5  and  O_8
    7  A    between atoms: C_6  and  C_7
    8  A    between atoms: O_8  and  C_9
    9  A    between atoms: C_9  and  C_11
   10  A    between atoms: C_12  and  C_13
   11  A    between atoms: C_16  and  O_17
   12  A    between atoms: O_17  and  C_18
                            x       y       z     vdW  Elec       q    Type
                         _______ _______ _______ _____ _____    ______ ____

>  <TORSDO>
F 9

$$$$
bg33_2_ligand
 OpenBabel10092621153D

 20 20  0  0  1  0  0  0  0  0999 V2000
    0.7850   -4.0140   -6.7930 C   0  0  0  0  0  0  0  0  0  0  0  0
    1.0910   -3.3500   -7.7590 O   0  0  0  0  0  0  0  0  0  0  0  0
    1.6800   -4.0100   -5.5890 C   0  0  0  0  0  3  0  0  0  0  0  0
    1.5740   -3.1200   -4.5510 C   0  0  0  0  0  3  0  0  0  0  0  0
    2.4270   -3.2900   -3.3160 C   0  0  0  0  0  0  0  0  0  0  0  0
    1.8520   -3.2700   -2.0610 C   0  0  0  0  0  3  0  0  0  0  0  0
    2.6860   -3.4070   -0.9550 C   0  0  0  0  0  3  0  0  0  0  0  0
    4.0620   -3.5590   -1.0580 C   0  0  0  0  0  0  0  0  0  0  0  0
    4.6040   -3.5520   -2.3210 C   0  0  0  0  0  3  0  0  0  0  0  0
    3.7940   -3.4240   -3.4570 C   0  0  0  0  0  3  0  0  0  0  0  0
    4.8670   -3.6600    0.0720 O   0  0  0  0  0  0  0  0  0  0  0  0
    4.2280   -3.3330    1.3120 C   0  0  0  0  0  1  0  0  0  0  0  0
   -0.3820   -4.8260   -6.8610 O   0  0  0  0  0  0  0  0  0  0  0  0
   -0.4720   -5.9820   -5.9690 C   0  0  2  0  0  3  0  0  0  0  0  0
    0.0670   -7.2640   -6.5690 C   0  0  0  0  0  2  0  0  0  0  0  0
    1.3980   -7.6930   -5.8370 C   0  0  0  0  0  1  0  0  0  0  0  0
   -1.8930   -6.2200   -5.5430 C   0  0  0  0  0  2  0  0  0  0  0  0
   -1.9940   -6.4050   -4.0180 C   0  0  0  0  0  2  0  0  0  0  0  0
   -1.1780   -5.3060   -1.9330 C   0  0  0  0  0  1  0  0  0  0  0  0
   -0.7720   -5.9030   -3.2920 C   0  0  0  0  0  2  0  0  0  0  0  0
  1  3  1  0  0  0  0
  2  1  2  0  0  0  0
  3  4  2  0  0  0  0
  4  5  1  0  0  0  0
  5  6  1  0  0  0  0
  6  7  2  0  0  0  0
  8  7  1  0  0  0  0
  8 11  1  0  0  0  0
  9  8  2  0  0  0  0
 10  5  2  0  0  0  0
 10  9  1  0  0  0  0
 11 12  1  0  0  0  0
 13  1  1  0  0  0  0
 13 14  1  0  0  0  0
 14 15  1  6  0  0  0
 14 17  1  0  0  0  0
 15 16  1  0  0  0  0
 17 18  1  0  0  0  0
 18 20  1  0  0  0  0
 20 19  1  0  0  0  0
M  END
>  <MODEL>
6

>  <REMARK>
 VINA RESULT:      -4.1      3.688      6.816
  Name = bg33_2_ligand
  12 active torsions:
  status: ('A' for Active; 'I' for Inactive)
    1  A    between atoms: C_1  and  C_2
    2  A    between atoms: C_2  and  C_3
    3  A    between atoms: C_3  and  C_4
    4  A    between atoms: C_4  and  C_5
    5  A    between atoms: C_5  and  C_6
    6  A    between atoms: C_5  and  O_8
    7  A    between atoms: C_6  and  C_7
    8  A    between atoms: O_8  and  C_9
    9  A    between atoms: C_9  and  C_11
   10  A    between atoms: C_12  and  C_13
   11  A    between atoms: C_16  and  O_17
   12  A    between atoms: O_17  and  C_18
                            x       y       z     vdW  Elec       q    Type
                         _______ _______ _______ _____ _____    ______ ____

>  <TORSDO>
F 9

$$$$
bg33_2_ligand
 OpenBabel10092621153D

 20 20  0  0  1  0  0  0  0  0999 V2000
    1.3610   -5.8740   -7.4910 C   0  0  0  0  0  0  0  0  0  0  0  0
    2.1110   -6.6050   -8.0990 O   0  0  0  0  0  0  0  0  0  0  0  0
    1.7220   -5.4480   -6.0980 C   0  0  0  0  0  3  0  0  0  0  0  0
    2.2610   -4.2280   -5.7780 C   0  0  0  0  0  3  0  0  0  0  0  0
    2.4540   -3.8400   -4.3320 C   0  0  0  0  0  0  0  0  0  0  0  0
    3.6940   -3.4360   -3.8770 C   0  0  0  0  0  3  0  0  0  0  0  0
    3.8230   -3.1100   -2.5290 C   0  0  0  0  0  3  0  0  0  0  0  0
    2.7690   -3.1760   -1.6300 C   0  0  0  0  0  0  0  0  0  0  0  0
    1.5550   -3.6040   -2.1110 C   0  0  0  0  0  3  0  0  0  0  0  0
    1.3860   -3.9320   -3.4630 C   0  0  0  0  0  3  0  0  0  0  0  0
    2.9450   -2.8750   -0.2830 O   0  0  0  0  0  0  0  0  0  0  0  0
    3.0450   -4.0070    0.5910 C   0  0  0  0  0  1  0  0  0  0  0  0
    0.1300   -5.4950   -8.0980 O   0  0  0  0  0  0  0  0  0  0  0  0
   -0.8860   -4.8570   -7.2600 C   0  0  2  0  0  3  0  0  0  0  0  0
   -2.0000   -5.7880   -6.8280 C   0  0  0  0  0  2  0  0  0  0  0  0
   -1.7590   -6.2790   -5.3470 C   0  0  0  0  0  1  0  0  0  0  0  0
   -1.5000   -3.6810   -7.9660 C   0  0  0  0  0  2  0  0  0  0  0  0
   -0.4570   -2.5770   -8.2180 C   0  0  0  0  0  2  0  0  0  0  0  0
   -0.3120   -0.3270   -7.1510 C   0  0  0  0  0  1  0  0  0  0  0  0
   -0.0820   -1.8360   -6.9600 C   0  0  0  0  0  2  0  0  0  0  0  0
  1  3  1  0  0  0  0
  2  1  2  0  0  0  0
  3  4  2  0  0  0  0
  4  5  1  0  0  0  0
  5  6  2  0  0  0  0
  5 10  1  0  0  0  0
  6  7  1  0  0  0  0
  7  8  2  0  0  0  0
  8 11  1  0  0  0  0
  9  8  1  0  0  0  0
 10  9  2  0  0  0  0
 11 12  1  0  0  0  0
 13  1  1  0  0  0  0
 13 14  1  0  0  0  0
 14 17  1  6  0  0  0
 14 15  1  0  0  0  0
 15 16  1  0  0  0  0
 18 17  1  0  0  0  0
 18 20  1  0  0  0  0
 19 20  1  0  0  0  0
M  END
>  <MODEL>
7

>  <REMARK>
 VINA RESULT:      -4.1      2.737      6.548
  Name = bg33_2_ligand
  12 active torsions:
  status: ('A' for Active; 'I' for Inactive)
    1  A    between atoms: C_1  and  C_2
    2  A    between atoms: C_2  and  C_3
    3  A    between atoms: C_3  and  C_4
    4  A    between atoms: C_4  and  C_5
    5  A    between atoms: C_5  and  C_6
    6  A    between atoms: C_5  and  O_8
    7  A    between atoms: C_6  and  C_7
    8  A    between atoms: O_8  and  C_9
    9  A    between atoms: C_9  and  C_11
   10  A    between atoms: C_12  and  C_13
   11  A    between atoms: C_16  and  O_17
   12  A    between atoms: O_17  and  C_18
                            x       y       z     vdW  Elec       q    Type
                         _______ _______ _______ _____ _____    ______ ____

>  <TORSDO>
F 9

$$$$
bg33_2_ligand
 OpenBabel10092621153D

 20 20  0  0  1  0  0  0  0  0999 V2000
   -0.6140   -6.0500   -6.8630 C   0  0  0  0  0  0  0  0  0  0  0  0
   -1.3300   -6.2780   -7.8120 O   0  0  0  0  0  0  0  0  0  0  0  0
   -1.1870   -6.1240   -5.4780 C   0  0  0  0  0  3  0  0  0  0  0  0
   -0.4520   -6.3860   -4.3500 C   0  0  0  0  0  3  0  0  0  0  0  0
   -1.0940   -6.2940   -2.9870 C   0  0  0  0  0  0  0  0  0  0  0  0
   -2.1870   -7.0790   -2.6760 C   0  0  0  0  0  3  0  0  0  0  0  0
   -2.7560   -6.9390   -1.4120 C   0  0  0  0  0  3  0  0  0  0  0  0
   -2.2780   -6.0500   -0.4610 C   0  0  0  0  0  0  0  0  0  0  0  0
   -1.2040   -5.2680   -0.8120 C   0  0  0  0  0  3  0  0  0  0  0  0
   -0.6000   -5.3870   -2.0710 C   0  0  0  0  0  3  0  0  0  0  0  0
   -2.8940   -5.9140    0.7790 O   0  0  0  0  0  0  0  0  0  0  0  0
   -2.3480   -4.8960    1.6270 C   0  0  0  0  0  1  0  0  0  0  0  0
    0.7340   -5.6580   -7.0990 O   0  0  0  0  0  0  0  0  0  0  0  0
    1.1240   -4.2880   -6.7620 C   0  0  2  0  0  3  0  0  0  0  0  0
    1.1610   -3.3500   -7.9500 C   0  0  0  0  0  2  0  0  0  0  0  0
    0.0700   -2.2200   -7.7880 C   0  0  0  0  0  1  0  0  0  0  0  0
    2.4720   -4.2640   -6.0980 C   0  0  0  0  0  2  0  0  0  0  0  0
    2.3380   -4.1330   -4.5700 C   0  0  0  0  0  2  0  0  0  0  0  0
    1.8540   -2.5790   -2.6800 C   0  0  0  0  0  1  0  0  0  0  0  0
    1.5770   -2.8990   -4.1590 C   0  0  0  0  0  2  0  0  0  0  0  0
  1  3  1  0  0  0  0
  2  1  2  0  0  0  0
  3  4  2  0  0  0  0
  4  5  1  0  0  0  0
  5  6  2  0  0  0  0
  5 10  1  0  0  0  0
  6  7  1  0  0  0  0
  7  8  2  0  0  0  0
  8 11  1  0  0  0  0
  9  8  1  0  0  0  0
 10  9  2  0  0  0  0
 11 12  1  0  0  0  0
 13  1  1  0  0  0  0
 13 14  1  0  0  0  0
 14 15  1  6  0  0  0
 14 17  1  0  0  0  0
 15 16  1  0  0  0  0
 17 18  1  0  0  0  0
 18 20  1  0  0  0  0
 20 19  1  0  0  0  0
M  END
>  <MODEL>
8

>  <REMARK>
 VINA RESULT:      -4.1      4.143      6.329
  Name = bg33_2_ligand
  12 active torsions:
  status: ('A' for Active; 'I' for Inactive)
    1  A    between atoms: C_1  and  C_2
    2  A    between atoms: C_2  and  C_3
    3  A    between atoms: C_3  and  C_4
    4  A    between atoms: C_4  and  C_5
    5  A    between atoms: C_5  and  C_6
    6  A    between atoms: C_5  and  O_8
    7  A    between atoms: C_6  and  C_7
    8  A    between atoms: O_8  and  C_9
    9  A    between atoms: C_9  and  C_11
   10  A    between atoms: C_12  and  C_13
   11  A    between atoms: C_16  and  O_17
   12  A    between atoms: O_17  and  C_18
                            x       y       z     vdW  Elec       q    Type
                         _______ _______ _______ _____ _____    ______ ____

>  <TORSDO>
F 9

$$$$
bg33_2_ligand
 OpenBabel10092621153D

 20 20  0  0  1  0  0  0  0  0999 V2000
    1.7030   -4.3670   -0.8080 C   0  0  0  0  0  0  0  0  0  0  0  0
    2.5450   -4.6370    0.0190 O   0  0  0  0  0  0  0  0  0  0  0  0
    0.4960   -5.2490   -0.9410 C   0  0  0  0  0  3  0  0  0  0  0  0
   -0.5750   -4.9750   -1.7510 C   0  0  0  0  0  3  0  0  0  0  0  0
   -1.6740   -5.9950   -1.9270 C   0  0  0  0  0  0  0  0  0  0  0  0
   -2.2660   -6.5810   -0.8250 C   0  0  0  0  0  3  0  0  0  0  0  0
   -3.2590   -7.5330   -1.0430 C   0  0  0  0  0  3  0  0  0  0  0  0
   -3.6740   -7.9170   -2.3090 C   0  0  0  0  0  0  0  0  0  0  0  0
   -3.0490   -7.3310   -3.3830 C   0  0  0  0  0  3  0  0  0  0  0  0
   -2.0520   -6.3640   -3.2030 C   0  0  0  0  0  3  0  0  0  0  0  0
   -4.6460   -8.8970   -2.4870 O   0  0  0  0  0  0  0  0  0  0  0  0
   -5.9620   -8.4090   -2.7800 C   0  0  0  0  0  1  0  0  0  0  0  0
    1.9210   -3.2540   -1.6700 O   0  0  0  0  0  0  0  0  0  0  0  0
    2.5400   -3.5000   -2.9730 C   0  0  2  0  0  3  0  0  0  0  0  0
    3.9110   -2.8750   -3.1290 C   0  0  0  0  0  2  0  0  0  0  0  0
    5.0300   -3.8840   -2.6570 C   0  0  0  0  0  1  0  0  0  0  0  0
    1.6630   -3.0010   -4.0860 C   0  0  0  0  0  2  0  0  0  0  0  0
    1.5830   -4.0240   -5.2330 C   0  0  0  0  0  2  0  0  0  0  0  0
    2.1660   -6.4360   -5.4890 C   0  0  0  0  0  1  0  0  0  0  0  0
    1.2830   -5.4190   -4.7460 C   0  0  0  0  0  2  0  0  0  0  0  0
  1  2  2  0  0  0  0
  3  1  1  0  0  0  0
  4  3  2  0  0  0  0
  5  4  1  0  0  0  0
  5  6  1  0  0  0  0
  7  6  2  0  0  0  0
  8  7  1  0  0  0  0
  9 10  1  0  0  0  0
  9  8  2  0  0  0  0
 10  5  2  0  0  0  0
 11  8  1  0  0  0  0
 12 11  1  0  0  0  0
 13  1  1  0  0  0  0
 14 17  1  6  0  0  0
 14 13  1  0  0  0  0
 15 14  1  0  0  0  0
 15 16  1  0  0  0  0
 18 20  1  0  0  0  0
 18 17  1  0  0  0  0
 19 20  1  0  0  0  0
M  END
>  <MODEL>
9

>  <REMARK>
 VINA RESULT:      -4.0      5.091      7.001
  Name = bg33_2_ligand
  12 active torsions:
  status: ('A' for Active; 'I' for Inactive)
    1  A    between atoms: C_1  and  C_2
    2  A    between atoms: C_2  and  C_3
    3  A    between atoms: C_3  and  C_4
    4  A    between atoms: C_4  and  C_5
    5  A    between atoms: C_5  and  C_6
    6  A    between atoms: C_5  and  O_8
    7  A    between atoms: C_6  and  C_7
    8  A    between atoms: O_8  and  C_9
    9  A    between atoms: C_9  and  C_11
   10  A    between atoms: C_12  and  C_13
   11  A    between atoms: C_16  and  O_17
   12  A    between atoms: O_17  and  C_18
                            x       y       z     vdW  Elec       q    Type
                         _______ _______ _______ _____ _____    ______ ____

>  <TORSDO>
F 9

$$$$
