bg33_1_ligand
     RDKit          3D

 44 44  0  0  0  0  0  0  0  0999 V2000
   -2.5163    4.2866   -1.9248 C   0  0  0  0  0  0  0  0  0  0  0  0
   -3.5633    4.7917   -2.8921 C   0  0  0  0  0  0  0  0  0  0  0  0
   -4.8886    4.4582   -2.4092 C   0  0  0  0  0  0  0  0  0  0  0  0
   -5.0874    3.1512   -2.9242 C   0  0  0  0  0  0  0  0  0  0  0  0
   -6.0928    2.4296   -2.2631 C   0  0  2  0  0  0  0  0  0  0  0  0
   -7.4043    2.2562   -2.9509 C   0  0  0  0  0  0  0  0  0  0  0  0
   -8.2427    3.3892   -2.8623 C   0  0  0  0  0  0  0  0  0  0  0  0
   -6.2285    2.6853   -1.0357 O   0  0  0  0  0  0  0  0  0  0  0  0
   -6.7431    1.6994   -0.3823 C   0  0  0  0  0  0  0  0  0  0  0  0
   -6.9479    0.6527   -0.9364 O   0  0  0  0  0  0  0  0  0  0  0  0
   -7.0518    1.8714    0.9810 C   0  0  0  0  0  0  0  0  0  0  0  0
   -8.0869    1.3122    1.4245 C   0  0  0  0  0  0  0  0  0  0  0  0
   -8.5996    1.5108    2.6879 C   0  0  0  0  0  0  0  0  0  0  0  0
   -7.8669    1.2784    3.7863 C   0  0  0  0  0  0  0  0  0  0  0  0
   -8.3560    1.4669    5.0371 C   0  0  0  0  0  0  0  0  0  0  0  0
   -9.6292    1.9454    5.1406 C   0  0  0  0  0  0  0  0  0  0  0  0
  -10.1709    2.1421    6.3192 O   0  0  0  0  0  0  0  0  0  0  0  0
  -10.6060    3.4420    6.5262 C   0  0  0  0  0  0  0  0  0  0  0  0
  -10.3868    2.2012    4.0943 C   0  0  0  0  0  0  0  0  0  0  0  0
   -9.8806    1.9588    2.8633 C   0  0  0  0  0  0  0  0  0  0  0  0
   -1.6721    4.9913   -1.8972 H   0  0  0  0  0  0  0  0  0  0  0  0
   -2.9560    4.2016   -0.9201 H   0  0  0  0  0  0  0  0  0  0  0  0
   -2.1593    3.2994   -2.2535 H   0  0  0  0  0  0  0  0  0  0  0  0
   -3.4746    5.8840   -2.9868 H   0  0  0  0  0  0  0  0  0  0  0  0
   -3.4070    4.3175   -3.8722 H   0  0  0  0  0  0  0  0  0  0  0  0
   -4.9227    4.4609   -1.3098 H   0  0  0  0  0  0  0  0  0  0  0  0
   -5.6616    5.1744   -2.7247 H   0  0  0  0  0  0  0  0  0  0  0  0
   -5.3615    3.2347   -3.9863 H   0  0  0  0  0  0  0  0  0  0  0  0
   -4.1467    2.6010   -2.7746 H   0  0  0  0  0  0  0  0  0  0  0  0
   -5.6419    1.4285   -2.3310 H   0  0  0  0  0  0  0  0  0  0  0  0
   -7.2145    2.0461   -4.0138 H   0  0  0  0  0  0  0  0  0  0  0  0
   -7.9257    1.4286   -2.4477 H   0  0  0  0  0  0  0  0  0  0  0  0
   -7.6430    4.3008   -3.0012 H   0  0  0  0  0  0  0  0  0  0  0  0
   -9.0151    3.3357   -3.6438 H   0  0  0  0  0  0  0  0  0  0  0  0
   -8.7230    3.4134   -1.8730 H   0  0  0  0  0  0  0  0  0  0  0  0
   -6.4079    2.4757    1.6368 H   0  0  0  0  0  0  0  0  0  0  0  0
   -8.6193    0.6172    0.7585 H   0  0  0  0  0  0  0  0  0  0  0  0
   -6.8327    0.9223    3.6688 H   0  0  0  0  0  0  0  0  0  0  0  0
   -7.7524    1.2438    5.9292 H   0  0  0  0  0  0  0  0  0  0  0  0
   -9.7801    4.1411    6.3281 H   0  0  0  0  0  0  0  0  0  0  0  0
  -11.4429    3.6611    5.8467 H   0  0  0  0  0  0  0  0  0  0  0  0
  -10.9403    3.5552    7.5680 H   0  0  0  0  0  0  0  0  0  0  0  0
  -11.4040    2.6013    4.2178 H   0  0  0  0  0  0  0  0  0  0  0  0
  -10.5152    2.1261    1.9807 H   0  0  0  0  0  0  0  0  0  0  0  0
  2  1  1  0
  3  2  1  0
  4  3  1  0
  5  4  1  0
  6  5  1  0
  7  6  1  0
  8  5  1  0
  9  8  1  0
 10  9  2  0
 11  9  1  0
 12 11  2  3
 13 12  1  0
 14 13  1  0
 15 14  2  0
 16 15  1  0
 17 16  1  0
 18 17  1  0
 19 16  2  0
 20 13  2  0
 20 19  1  0
  1 21  1  0
  1 22  1  0
  1 23  1  0
  2 24  1  0
  2 25  1  0
  3 26  1  0
  3 27  1  0
  4 28  1  0
  4 29  1  0
  5 30  1  1
  6 31  1  0
  6 32  1  0
  7 33  1  0
  7 34  1  0
  7 35  1  0
 11 36  1  0
 12 37  1  0
 14 38  1  0
 15 39  1  0
 18 40  1  0
 18 41  1  0
 18 42  1  0
 19 43  1  0
 20 44  1  0
M  END
$$$$
