bg33_1_ligand
 OpenBabel10092621123D

 20 20  0  0  1  0  0  0  0  0999 V2000
   -2.4730   -3.8140    6.3540 C   0  0  0  0  0  0  0  0  0  0  0  0
   -3.4250   -4.5450    6.4020 O   0  0  0  0  0  0  0  0  0  0  0  0
   -2.3570   -2.8400    5.3430 C   0  0  0  0  0  3  0  0  0  0  0  0
   -3.3740   -2.5870    4.6490 C   0  0  0  0  0  3  0  0  0  0  0  0
   -3.3760   -1.7790    3.5340 C   0  0  0  0  0  0  0  0  0  0  0  0
   -2.9970   -0.4950    3.5990 C   0  0  0  0  0  3  0  0  0  0  0  0
   -2.9940    0.3160    2.5120 C   0  0  0  0  0  3  0  0  0  0  0  0
   -3.3610   -0.2390    1.3220 C   0  0  0  0  0  0  0  0  0  0  0  0
   -3.7310   -1.4980    1.2010 C   0  0  0  0  0  3  0  0  0  0  0  0
   -3.7640   -2.2650    2.3150 C   0  0  0  0  0  3  0  0  0  0  0  0
   -3.3920    0.4870    0.2300 O   0  0  0  0  0  0  0  0  0  0  0  0
   -4.5040    0.2580   -0.5650 C   0  0  0  0  0  1  0  0  0  0  0  0
   -1.5400   -3.9110    7.2390 O   0  0  0  0  0  0  0  0  0  0  0  0
   -1.9960   -4.0520    8.4060 C   0  0  1  0  0  3  0  0  0  0  0  0
   -1.3360   -5.1720    9.1370 C   0  0  0  0  0  2  0  0  0  0  0  0
   -2.0830   -6.3710    9.1240 C   0  0  0  0  0  1  0  0  0  0  0  0
   -2.2510   -2.8620    9.1040 C   0  0  0  0  0  2  0  0  0  0  0  0
   -3.4980   -2.8540    9.7810 C   0  0  0  0  0  2  0  0  0  0  0  0
   -2.1240   -0.9730   10.4680 C   0  0  0  0  0  1  0  0  0  0  0  0
   -3.2840   -1.8740   10.8290 C   0  0  0  0  0  2  0  0  0  0  0  0
  1  2  2  0  0  0  0
  1 13  1  0  0  0  0
  3  1  1  0  0  0  0
  4  3  2  0  0  0  0
  5  6  1  0  0  0  0
  5  4  1  0  0  0  0
  7  6  2  0  0  0  0
  8  7  1  0  0  0  0
  9  8  2  0  0  0  0
  9 10  1  0  0  0  0
 10  5  2  0  0  0  0
 11  8  1  0  0  0  0
 12 11  1  0  0  0  0
 13 14  1  0  0  0  0
 14 17  1  1  0  0  0
 14 15  1  0  0  0  0
 16 15  1  0  0  0  0
 17 18  1  0  0  0  0
 18 20  1  0  0  0  0
 19 20  1  0  0  0  0
M  END
>  <MODEL>
1

>  <REMARK>
 VINA RESULT:      -3.6      0.000      0.000
  Name = bg33_1_ligand
  12 active torsions:
  status: ('A' for Active; 'I' for Inactive)
    1  A    between atoms: C_1  and  C_2
    2  A    between atoms: C_2  and  C_3
    3  A    between atoms: C_3  and  C_4
    4  A    between atoms: C_4  and  C_5
    5  A    between atoms: C_5  and  C_6
    6  A    between atoms: C_5  and  O_8
    7  A    between atoms: C_6  and  C_7
    8  A    between atoms: O_8  and  C_9
    9  A    between atoms: C_9  and  C_11
   10  A    between atoms: C_12  and  C_13
   11  A    between atoms: C_16  and  O_17
   12  A    between atoms: O_17  and  C_18
                            x       y       z     vdW  Elec       q    Type
                         _______ _______ _______ _____ _____    ______ ____

>  <TORSDO>
F 9

$$$$
bg33_1_ligand
 OpenBabel10092621123D

 20 20  0  0  1  0  0  0  0  0999 V2000
   -0.8310    6.5850   -8.5450 C   0  0  0  0  0  0  0  0  0  0  0  0
   -1.0600    6.0170   -9.5790 O   0  0  0  0  0  0  0  0  0  0  0  0
   -1.0670    5.9590   -7.3060 C   0  0  0  0  0  3  0  0  0  0  0  0
   -2.2150    6.0590   -6.8050 C   0  0  0  0  0  3  0  0  0  0  0  0
   -2.5530    5.6360   -5.5380 C   0  0  0  0  0  0  0  0  0  0  0  0
   -2.6650    6.4990   -4.5180 C   0  0  0  0  0  3  0  0  0  0  0  0
   -2.9950    6.1000   -3.2650 C   0  0  0  0  0  3  0  0  0  0  0  0
   -3.2500    4.7730   -3.0820 C   0  0  0  0  0  0  0  0  0  0  0  0
   -3.1670    3.8860   -4.0520 C   0  0  0  0  0  3  0  0  0  0  0  0
   -2.7920    4.3140   -5.2800 C   0  0  0  0  0  3  0  0  0  0  0  0
   -3.5650    4.3140   -1.8940 O   0  0  0  0  0  0  0  0  0  0  0  0
   -2.5930    3.5030   -1.3300 C   0  0  0  0  0  1  0  0  0  0  0  0
   -0.3580    7.7850   -8.5590 O   0  0  0  0  0  0  0  0  0  0  0  0
    0.7740    7.8630   -8.0100 C   0  0  1  0  0  3  0  0  0  0  0  0
    1.8870    7.6710   -8.9830 C   0  0  0  0  0  2  0  0  0  0  0  0
    2.8590    6.7400   -8.5540 C   0  0  0  0  0  1  0  0  0  0  0  0
    0.9090    8.8650   -7.0370 C   0  0  0  0  0  2  0  0  0  0  0  0
    1.2310    8.3700   -5.7480 C   0  0  0  0  0  2  0  0  0  0  0  0
    0.3320    8.4590   -3.4940 C   0  0  0  0  0  1  0  0  0  0  0  0
    0.1080    8.8160   -4.9460 C   0  0  0  0  0  2  0  0  0  0  0  0
  1  3  1  0  0  0  0
  2  1  2  0  0  0  0
  3  4  2  0  0  0  0
  4  5  1  0  0  0  0
  5 10  2  0  0  0  0
  5  6  1  0  0  0  0
  6  7  2  0  0  0  0
  7  8  1  0  0  0  0
  8 11  1  0  0  0  0
  9  8  2  0  0  0  0
 10  9  1  0  0  0  0
 11 12  1  0  0  0  0
 13  1  1  0  0  0  0
 13 14  1  0  0  0  0
 14 15  1  6  0  0  0
 14 17  1  0  0  0  0
 15 16  1  0  0  0  0
 17 18  1  0  0  0  0
 18 20  1  0  0  0  0
 20 19  1  0  0  0  0
M  END
>  <MODEL>
2

>  <REMARK>
 VINA RESULT:      -3.6     10.059     15.796
  Name = bg33_1_ligand
  12 active torsions:
  status: ('A' for Active; 'I' for Inactive)
    1  A    between atoms: C_1  and  C_2
    2  A    between atoms: C_2  and  C_3
    3  A    between atoms: C_3  and  C_4
    4  A    between atoms: C_4  and  C_5
    5  A    between atoms: C_5  and  C_6
    6  A    between atoms: C_5  and  O_8
    7  A    between atoms: C_6  and  C_7
    8  A    between atoms: O_8  and  C_9
    9  A    between atoms: C_9  and  C_11
   10  A    between atoms: C_12  and  C_13
   11  A    between atoms: C_16  and  O_17
   12  A    between atoms: O_17  and  C_18
                            x       y       z     vdW  Elec       q    Type
                         _______ _______ _______ _____ _____    ______ ____

>  <TORSDO>
F 9

$$$$
bg33_1_ligand
 OpenBabel10092621123D

 20 20  0  0  1  0  0  0  0  0999 V2000
   -5.0560   -1.5210    8.5780 C   0  0  0  0  0  0  0  0  0  0  0  0
   -6.1130   -2.0910    8.5680 O   0  0  0  0  0  0  0  0  0  0  0  0
   -4.5340   -0.9380    7.4070 C   0  0  0  0  0  3  0  0  0  0  0  0
   -4.8040   -1.4830    6.3070 C   0  0  0  0  0  3  0  0  0  0  0  0
   -4.2460   -1.1230    5.1000 C   0  0  0  0  0  0  0  0  0  0  0  0
   -3.6300    0.0560    4.9380 C   0  0  0  0  0  3  0  0  0  0  0  0
   -3.0770    0.4280    3.7570 C   0  0  0  0  0  3  0  0  0  0  0  0
   -3.1370   -0.4700    2.7320 C   0  0  0  0  0  0  0  0  0  0  0  0
   -3.7200   -1.6460    2.8430 C   0  0  0  0  0  3  0  0  0  0  0  0
   -4.3000   -1.9650    4.0230 C   0  0  0  0  0  3  0  0  0  0  0  0
   -2.6320   -0.1740    1.5580 O   0  0  0  0  0  0  0  0  0  0  0  0
   -3.4070   -0.6020    0.4910 C   0  0  0  0  0  1  0  0  0  0  0  0
   -4.3820   -1.4320    9.6750 O   0  0  0  0  0  0  0  0  0  0  0  0
   -3.1890   -1.8170    9.5390 C   0  0  1  0  0  3  0  0  0  0  0  0
   -2.2350   -0.9870   10.3290 C   0  0  0  0  0  2  0  0  0  0  0  0
   -2.6000   -0.8460   11.6860 C   0  0  0  0  0  1  0  0  0  0  0  0
   -2.9990   -3.2070    9.5190 C   0  0  0  0  0  2  0  0  0  0  0  0
   -1.8850   -3.6210    8.7440 C   0  0  0  0  0  2  0  0  0  0  0  0
   -1.8130   -3.7820    6.3230 C   0  0  0  0  0  1  0  0  0  0  0  0
   -2.5110   -4.2310    7.5870 C   0  0  0  0  0  2  0  0  0  0  0  0
  1 13  1  0  0  0  0
  2  1  2  0  0  0  0
  3  1  1  0  0  0  0
  4  3  2  0  0  0  0
  5  4  1  0  0  0  0
  6  5  1  0  0  0  0
  7  6  2  0  0  0  0
  8  9  2  0  0  0  0
  8  7  1  0  0  0  0
  9 10  1  0  0  0  0
 10  5  2  0  0  0  0
 11  8  1  0  0  0  0
 12 11  1  0  0  0  0
 14 17  1  1  0  0  0
 14 13  1  0  0  0  0
 14 15  1  0  0  0  0
 15 16  1  0  0  0  0
 18 17  1  0  0  0  0
 19 20  1  0  0  0  0
 20 18  1  0  0  0  0
M  END
>  <MODEL>
3

>  <REMARK>
 VINA RESULT:      -3.5      1.972      3.217
  Name = bg33_1_ligand
  12 active torsions:
  status: ('A' for Active; 'I' for Inactive)
    1  A    between atoms: C_1  and  C_2
    2  A    between atoms: C_2  and  C_3
    3  A    between atoms: C_3  and  C_4
    4  A    between atoms: C_4  and  C_5
    5  A    between atoms: C_5  and  C_6
    6  A    between atoms: C_5  and  O_8
    7  A    between atoms: C_6  and  C_7
    8  A    between atoms: O_8  and  C_9
    9  A    between atoms: C_9  and  C_11
   10  A    between atoms: C_12  and  C_13
   11  A    between atoms: C_16  and  O_17
   12  A    between atoms: O_17  and  C_18
                            x       y       z     vdW  Elec       q    Type
                         _______ _______ _______ _____ _____    ______ ____

>  <TORSDO>
F 9

$$$$
bg33_1_ligand
 OpenBabel10092621123D

 20 20  0  0  1  0  0  0  0  0999 V2000
   -3.0260    3.7140   -2.2860 C   0  0  0  0  0  0  0  0  0  0  0  0
   -3.5440    4.7710   -2.0460 O   0  0  0  0  0  0  0  0  0  0  0  0
   -2.7230    2.8030   -1.2560 C   0  0  0  0  0  3  0  0  0  0  0  0
   -3.6810    2.2290   -0.6770 C   0  0  0  0  0  3  0  0  0  0  0  0
   -3.5530    1.4360    0.4420 C   0  0  0  0  0  0  0  0  0  0  0  0
   -3.3050    0.1220    0.3440 C   0  0  0  0  0  3  0  0  0  0  0  0
   -3.1770   -0.6740    1.4350 C   0  0  0  0  0  3  0  0  0  0  0  0
   -3.2750   -0.0750    2.6560 C   0  0  0  0  0  0  0  0  0  0  0  0
   -3.5070    1.2130    2.8070 C   0  0  0  0  0  3  0  0  0  0  0  0
   -3.6720    1.9680    1.6970 C   0  0  0  0  0  3  0  0  0  0  0  0
   -3.1730   -0.7850    3.7540 O   0  0  0  0  0  0  0  0  0  0  0  0
   -3.5940   -2.0990    3.6150 C   0  0  0  0  0  1  0  0  0  0  0  0
   -2.7430    3.3970   -3.5050 O   0  0  0  0  0  0  0  0  0  0  0  0
   -3.7140    3.5790   -4.2880 C   0  0  1  0  0  3  0  0  0  0  0  0
   -3.3030    4.2670   -5.5450 C   0  0  0  0  0  2  0  0  0  0  0  0
   -2.6630    5.5070   -5.3270 C   0  0  0  0  0  1  0  0  0  0  0  0
   -4.6260    2.5170   -4.3800 C   0  0  0  0  0  2  0  0  0  0  0  0
   -4.9110    2.1230   -5.7130 C   0  0  0  0  0  2  0  0  0  0  0  0
   -4.7960    0.0730   -7.0090 C   0  0  0  0  0  1  0  0  0  0  0  0
   -4.8960    0.6750   -5.6260 C   0  0  0  0  0  2  0  0  0  0  0  0
  1  2  2  0  0  0  0
  1  3  1  0  0  0  0
  3  4  2  0  0  0  0
  4  5  1  0  0  0  0
  5 10  1  0  0  0  0
  6  5  2  0  0  0  0
  6  7  1  0  0  0  0
  7  8  2  0  0  0  0
  8  9  1  0  0  0  0
  8 11  1  0  0  0  0
 10  9  2  0  0  0  0
 12 11  1  0  0  0  0
 13  1  1  0  0  0  0
 14 15  1  6  0  0  0
 14 13  1  0  0  0  0
 15 16  1  0  0  0  0
 17 14  1  0  0  0  0
 18 20  1  0  0  0  0
 18 17  1  0  0  0  0
 19 20  1  0  0  0  0
M  END
>  <MODEL>
4

>  <REMARK>
 VINA RESULT:      -3.4      4.381     11.503
  Name = bg33_1_ligand
  12 active torsions:
  status: ('A' for Active; 'I' for Inactive)
    1  A    between atoms: C_1  and  C_2
    2  A    between atoms: C_2  and  C_3
    3  A    between atoms: C_3  and  C_4
    4  A    between atoms: C_4  and  C_5
    5  A    between atoms: C_5  and  C_6
    6  A    between atoms: C_5  and  O_8
    7  A    between atoms: C_6  and  C_7
    8  A    between atoms: O_8  and  C_9
    9  A    between atoms: C_9  and  C_11
   10  A    between atoms: C_12  and  C_13
   11  A    between atoms: C_16  and  O_17
   12  A    between atoms: O_17  and  C_18
                            x       y       z     vdW  Elec       q    Type
                         _______ _______ _______ _____ _____    ______ ____

>  <TORSDO>
F 9

$$$$
bg33_1_ligand
 OpenBabel10092621123D

 20 20  0  0  1  0  0  0  0  0999 V2000
   -2.7470    5.6330   -6.1360 C   0  0  0  0  0  0  0  0  0  0  0  0
   -3.6290    6.1040   -6.8020 O   0  0  0  0  0  0  0  0  0  0  0  0
   -2.9920    5.1750   -4.8270 C   0  0  0  0  0  3  0  0  0  0  0  0
   -3.0640    3.9340   -4.6410 C   0  0  0  0  0  3  0  0  0  0  0  0
   -3.4470    3.3430   -3.4570 C   0  0  0  0  0  0  0  0  0  0  0  0
   -4.5360    2.5640   -3.3830 C   0  0  0  0  0  3  0  0  0  0  0  0
   -4.9290    1.9760   -2.2260 C   0  0  0  0  0  3  0  0  0  0  0  0
   -4.1450    2.1790   -1.1290 C   0  0  0  0  0  0  0  0  0  0  0  0
   -3.0600    2.9260   -1.1500 C   0  0  0  0  0  3  0  0  0  0  0  0
   -2.7230    3.5320   -2.3110 C   0  0  0  0  0  3  0  0  0  0  0  0
   -4.4700    1.6500    0.0270 O   0  0  0  0  0  0  0  0  0  0  0  0
   -3.5110    0.7890    0.5390 C   0  0  0  0  0  1  0  0  0  0  0  0
   -1.5550    5.5370   -6.6190 O   0  0  0  0  0  0  0  0  0  0  0  0
   -1.1390    6.6280   -7.0940 C   0  0  1  0  0  3  0  0  0  0  0  0
   -0.5890    7.5280   -6.0400 C   0  0  0  0  0  2  0  0  0  0  0  0
    0.4300    8.3880   -6.5070 C   0  0  0  0  0  1  0  0  0  0  0  0
   -0.4510    6.5360   -8.3130 C   0  0  0  0  0  2  0  0  0  0  0  0
   -1.3010    6.3920   -9.4390 C   0  0  0  0  0  2  0  0  0  0  0  0
   -0.4980    8.5710  -10.1490 C   0  0  0  0  0  1  0  0  0  0  0  0
   -1.6980    7.7600   -9.7140 C   0  0  0  0  0  2  0  0  0  0  0  0
  1  3  1  0  0  0  0
  2  1  2  0  0  0  0
  3  4  2  0  0  0  0
  4  5  1  0  0  0  0
  5  6  2  0  0  0  0
  5 10  1  0  0  0  0
  6  7  1  0  0  0  0
  7  8  2  0  0  0  0
  8 11  1  0  0  0  0
  9  8  1  0  0  0  0
 10  9  2  0  0  0  0
 11 12  1  0  0  0  0
 13  1  1  0  0  0  0
 14 17  1  6  0  0  0
 14 13  1  0  0  0  0
 14 15  1  0  0  0  0
 16 15  1  0  0  0  0
 18 17  1  0  0  0  0
 19 20  1  0  0  0  0
 20 18  1  0  0  0  0
M  END
>  <MODEL>
5

>  <REMARK>
 VINA RESULT:      -3.4      7.923     14.969
  Name = bg33_1_ligand
  12 active torsions:
  status: ('A' for Active; 'I' for Inactive)
    1  A    between atoms: C_1  and  C_2
    2  A    between atoms: C_2  and  C_3
    3  A    between atoms: C_3  and  C_4
    4  A    between atoms: C_4  and  C_5
    5  A    between atoms: C_5  and  C_6
    6  A    between atoms: C_5  and  O_8
    7  A    between atoms: C_6  and  C_7
    8  A    between atoms: O_8  and  C_9
    9  A    between atoms: C_9  and  C_11
   10  A    between atoms: C_12  and  C_13
   11  A    between atoms: C_16  and  O_17
   12  A    between atoms: O_17  and  C_18
                            x       y       z     vdW  Elec       q    Type
                         _______ _______ _______ _____ _____    ______ ____

>  <TORSDO>
F 9

$$$$
bg33_1_ligand
 OpenBabel10092621123D

 20 20  0  0  1  0  0  0  0  0999 V2000
   -3.5220   -2.9000    4.4100 C   0  0  0  0  0  0  0  0  0  0  0  0
   -4.4630   -3.5060    4.8450 O   0  0  0  0  0  0  0  0  0  0  0  0
   -3.6520   -2.0740    3.2770 C   0  0  0  0  0  3  0  0  0  0  0  0
   -3.1520   -0.9210    3.3280 C   0  0  0  0  0  3  0  0  0  0  0  0
   -3.3290    0.0490    2.3670 C   0  0  0  0  0  0  0  0  0  0  0  0
   -3.2210   -0.2320    1.0600 C   0  0  0  0  0  3  0  0  0  0  0  0
   -3.3910    0.7110    0.1000 C   0  0  0  0  0  3  0  0  0  0  0  0
   -3.7160    1.9690    0.5150 C   0  0  0  0  0  0  0  0  0  0  0  0
   -3.8450    2.2940    1.7850 C   0  0  0  0  0  3  0  0  0  0  0  0
   -3.6260    1.3380    2.7170 C   0  0  0  0  0  3  0  0  0  0  0  0
   -3.8850    2.9340   -0.3570 O   0  0  0  0  0  0  0  0  0  0  0  0
   -3.9880    2.4930   -1.6680 C   0  0  0  0  0  1  0  0  0  0  0  0
   -2.3700   -2.9980    4.9840 O   0  0  0  0  0  0  0  0  0  0  0  0
   -2.1630   -4.1490    5.4540 C   0  0  1  0  0  3  0  0  0  0  0  0
   -1.6380   -5.0920    4.4260 C   0  0  0  0  0  2  0  0  0  0  0  0
   -0.8300   -6.1190    4.9620 C   0  0  0  0  0  1  0  0  0  0  0  0
   -1.5990   -4.1860    6.7390 C   0  0  0  0  0  2  0  0  0  0  0  0
   -2.3630   -3.5000    7.7180 C   0  0  0  0  0  2  0  0  0  0  0  0
   -1.4850   -5.4450    8.8760 C   0  0  0  0  0  1  0  0  0  0  0  0
   -1.7760   -3.9640    8.9600 C   0  0  0  0  0  2  0  0  0  0  0  0
  1  2  2  0  0  0  0
  1 13  1  0  0  0  0
  3  4  2  0  0  0  0
  3  1  1  0  0  0  0
  5 10  1  0  0  0  0
  5  4  1  0  0  0  0
  6  5  2  0  0  0  0
  7  8  2  0  0  0  0
  7  6  1  0  0  0  0
  8  9  1  0  0  0  0
  9 10  2  0  0  0  0
 11  8  1  0  0  0  0
 12 11  1  0  0  0  0
 13 14  1  0  0  0  0
 14 15  1  6  0  0  0
 14 17  1  0  0  0  0
 15 16  1  0  0  0  0
 17 18  1  0  0  0  0
 18 20  1  0  0  0  0
 19 20  1  0  0  0  0
M  END
>  <MODEL>
6

>  <REMARK>
 VINA RESULT:      -3.4      1.687      3.072
  Name = bg33_1_ligand
  12 active torsions:
  status: ('A' for Active; 'I' for Inactive)
    1  A    between atoms: C_1  and  C_2
    2  A    between atoms: C_2  and  C_3
    3  A    between atoms: C_3  and  C_4
    4  A    between atoms: C_4  and  C_5
    5  A    between atoms: C_5  and  C_6
    6  A    between atoms: C_5  and  O_8
    7  A    between atoms: C_6  and  C_7
    8  A    between atoms: O_8  and  C_9
    9  A    between atoms: C_9  and  C_11
   10  A    between atoms: C_12  and  C_13
   11  A    between atoms: C_16  and  O_17
   12  A    between atoms: O_17  and  C_18
                            x       y       z     vdW  Elec       q    Type
                         _______ _______ _______ _____ _____    ______ ____

>  <TORSDO>
F 9

$$$$
bg33_1_ligand
 OpenBabel10092621123D

 20 20  0  0  1  0  0  0  0  0999 V2000
   -5.7880    0.9150   -2.3780 C   0  0  0  0  0  0  0  0  0  0  0  0
   -5.7450   -0.2130   -2.7890 O   0  0  0  0  0  0  0  0  0  0  0  0
   -5.4400    1.2150   -1.0470 C   0  0  0  0  0  3  0  0  0  0  0  0
   -4.2870    0.9030   -0.6550 C   0  0  0  0  0  3  0  0  0  0  0  0
   -3.8560    0.9920    0.6500 C   0  0  0  0  0  0  0  0  0  0  0  0
   -3.3680   -0.0740    1.3000 C   0  0  0  0  0  3  0  0  0  0  0  0
   -2.9410   -0.0050    2.5860 C   0  0  0  0  0  3  0  0  0  0  0  0
   -2.9920    1.2150    3.1930 C   0  0  0  0  0  0  0  0  0  0  0  0
   -3.4510    2.2950    2.5950 C   0  0  0  0  0  3  0  0  0  0  0  0
   -3.9100    2.1800    1.3280 C   0  0  0  0  0  3  0  0  0  0  0  0
   -2.6050    1.3540    4.4390 O   0  0  0  0  0  0  0  0  0  0  0  0
   -1.9530    2.5510    4.6930 C   0  0  0  0  0  1  0  0  0  0  0  0
   -6.1540    1.8730   -3.1610 O   0  0  0  0  0  0  0  0  0  0  0  0
   -5.2370    2.2260   -3.9510 C   0  0  1  0  0  3  0  0  0  0  0  0
   -5.5990    1.9870   -5.3770 C   0  0  0  0  0  2  0  0  0  0  0  0
   -4.8670    0.9390   -5.9780 C   0  0  0  0  0  1  0  0  0  0  0  0
   -4.5820    3.4230   -3.6230 C   0  0  0  0  0  2  0  0  0  0  0  0
   -3.1670    3.3310   -3.6720 C   0  0  0  0  0  2  0  0  0  0  0  0
   -3.7020    4.6140   -1.6810 C   0  0  0  0  0  1  0  0  0  0  0  0
   -2.7860    3.5790   -2.2950 C   0  0  0  0  0  2  0  0  0  0  0  0
  1  3  1  0  0  0  0
  2  1  2  0  0  0  0
  3  4  2  0  0  0  0
  4  5  1  0  0  0  0
  5  6  2  0  0  0  0
  5 10  1  0  0  0  0
  6  7  1  0  0  0  0
  7  8  2  0  0  0  0
  8 11  1  0  0  0  0
  9  8  1  0  0  0  0
 10  9  2  0  0  0  0
 11 12  1  0  0  0  0
 13  1  1  0  0  0  0
 14 15  1  6  0  0  0
 14 17  1  0  0  0  0
 14 13  1  0  0  0  0
 16 15  1  0  0  0  0
 18 17  1  0  0  0  0
 18 20  1  0  0  0  0
 20 19  1  0  0  0  0
M  END
>  <MODEL>
7

>  <REMARK>
 VINA RESULT:      -3.3      5.384     10.474
  Name = bg33_1_ligand
  12 active torsions:
  status: ('A' for Active; 'I' for Inactive)
    1  A    between atoms: C_1  and  C_2
    2  A    between atoms: C_2  and  C_3
    3  A    between atoms: C_3  and  C_4
    4  A    between atoms: C_4  and  C_5
    5  A    between atoms: C_5  and  C_6
    6  A    between atoms: C_5  and  O_8
    7  A    between atoms: C_6  and  C_7
    8  A    between atoms: O_8  and  C_9
    9  A    between atoms: C_9  and  C_11
   10  A    between atoms: C_12  and  C_13
   11  A    between atoms: C_16  and  O_17
   12  A    between atoms: O_17  and  C_18
                            x       y       z     vdW  Elec       q    Type
                         _______ _______ _______ _____ _____    ______ ____

>  <TORSDO>
F 9

$$$$
bg33_1_ligand
 OpenBabel10092621123D

 20 20  0  0  1  0  0  0  0  0999 V2000
   -5.5790    2.5730   -5.2980 C   0  0  0  0  0  0  0  0  0  0  0  0
   -6.3480    2.9400   -4.4520 O   0  0  0  0  0  0  0  0  0  0  0  0
   -5.6850    1.2900   -5.8690 C   0  0  0  0  0  3  0  0  0  0  0  0
   -4.6230    0.7020   -6.1960 C   0  0  0  0  0  3  0  0  0  0  0  0
   -4.5730   -0.4810   -6.9000 C   0  0  0  0  0  0  0  0  0  0  0  0
   -4.3840   -1.6560   -6.2820 C   0  0  0  0  0  3  0  0  0  0  0  0
   -4.3300   -2.8300   -6.9590 C   0  0  0  0  0  3  0  0  0  0  0  0
   -4.5140   -2.7780   -8.3100 C   0  0  0  0  0  0  0  0  0  0  0  0
   -4.7150   -1.6520   -8.9630 C   0  0  0  0  0  3  0  0  0  0  0  0
   -4.7190   -0.4960   -8.2600 C   0  0  0  0  0  3  0  0  0  0  0  0
   -4.4650   -3.8730   -9.0300 O   0  0  0  0  0  0  0  0  0  0  0  0
   -3.8280   -4.9310   -8.4000 C   0  0  0  0  0  1  0  0  0  0  0  0
   -4.6380    3.3600   -5.6990 O   0  0  0  0  0  0  0  0  0  0  0  0
   -4.1560    4.0510   -4.7610 C   0  0  1  0  0  3  0  0  0  0  0  0
   -3.0540    3.3440   -4.0490 C   0  0  0  0  0  2  0  0  0  0  0  0
   -3.0460    3.5720   -2.6550 C   0  0  0  0  0  1  0  0  0  0  0  0
   -4.0000    5.4180   -5.0350 C   0  0  0  0  0  2  0  0  0  0  0  0
   -3.4480    5.6850   -6.3140 C   0  0  0  0  0  2  0  0  0  0  0  0
   -1.2100    6.1660   -7.1210 C   0  0  0  0  0  1  0  0  0  0  0  0
   -2.1970    6.3420   -5.9890 C   0  0  0  0  0  2  0  0  0  0  0  0
  1  2  2  0  0  0  0
  3  1  1  0  0  0  0
  4  3  2  0  0  0  0
  5  6  1  0  0  0  0
  5  4  1  0  0  0  0
  7  6  2  0  0  0  0
  8  7  1  0  0  0  0
  9  8  2  0  0  0  0
  9 10  1  0  0  0  0
 10  5  2  0  0  0  0
 11 12  1  0  0  0  0
 11  8  1  0  0  0  0
 13  1  1  0  0  0  0
 13 14  1  0  0  0  0
 14 17  1  6  0  0  0
 14 15  1  0  0  0  0
 15 16  1  0  0  0  0
 18 20  1  0  0  0  0
 18 17  1  0  0  0  0
 19 20  1  0  0  0  0
M  END
>  <MODEL>
8

>  <REMARK>
 VINA RESULT:      -3.3     11.152     13.711
  Name = bg33_1_ligand
  12 active torsions:
  status: ('A' for Active; 'I' for Inactive)
    1  A    between atoms: C_1  and  C_2
    2  A    between atoms: C_2  and  C_3
    3  A    between atoms: C_3  and  C_4
    4  A    between atoms: C_4  and  C_5
    5  A    between atoms: C_5  and  C_6
    6  A    between atoms: C_5  and  O_8
    7  A    between atoms: C_6  and  C_7
    8  A    between atoms: O_8  and  C_9
    9  A    between atoms: C_9  and  C_11
   10  A    between atoms: C_12  and  C_13
   11  A    between atoms: C_16  and  O_17
   12  A    between atoms: O_17  and  C_18
                            x       y       z     vdW  Elec       q    Type
                         _______ _______ _______ _____ _____    ______ ____

>  <TORSDO>
F 9

$$$$
bg33_1_ligand
 OpenBabel10092621123D

 20 20  0  0  1  0  0  0  0  0999 V2000
   -3.7730    1.9010   -0.8840 C   0  0  0  0  0  0  0  0  0  0  0  0
   -4.6810    1.5510   -1.5880 O   0  0  0  0  0  0  0  0  0  0  0  0
   -3.6190    1.3790    0.4150 C   0  0  0  0  0  3  0  0  0  0  0  0
   -3.4430    0.1400    0.5340 C   0  0  0  0  0  3  0  0  0  0  0  0
   -3.4310   -0.5330    1.7360 C   0  0  0  0  0  0  0  0  0  0  0  0
   -3.8550   -1.8010    1.8330 C   0  0  0  0  0  3  0  0  0  0  0  0
   -3.8510   -2.4790    3.0080 C   0  0  0  0  0  3  0  0  0  0  0  0
   -3.3590   -1.8270    4.1000 C   0  0  0  0  0  0  0  0  0  0  0  0
   -2.9200   -0.5850    4.0560 C   0  0  0  0  0  3  0  0  0  0  0  0
   -2.9790    0.0740    2.8760 C   0  0  0  0  0  3  0  0  0  0  0  0
   -3.3340   -2.4170    5.2710 O   0  0  0  0  0  0  0  0  0  0  0  0
   -2.3200   -3.3520    5.4070 C   0  0  0  0  0  1  0  0  0  0  0  0
   -2.9170    2.7640   -1.3170 O   0  0  0  0  0  0  0  0  0  0  0  0
   -3.4280    3.5830   -2.1280 C   0  0  1  0  0  3  0  0  0  0  0  0
   -3.7890    4.8730   -1.4730 C   0  0  0  0  0  2  0  0  0  0  0  0
   -2.6850    5.7310   -1.2690 C   0  0  0  0  0  1  0  0  0  0  0  0
   -2.8350    3.6270   -3.3990 C   0  0  0  0  0  2  0  0  0  0  0  0
   -3.7680    3.7680   -4.4590 C   0  0  0  0  0  2  0  0  0  0  0  0
   -2.7530    5.9080   -4.9920 C   0  0  0  0  0  1  0  0  0  0  0  0
   -3.0060    4.4920   -5.4580 C   0  0  0  0  0  2  0  0  0  0  0  0
  1  3  1  0  0  0  0
  2  1  2  0  0  0  0
  3  4  2  0  0  0  0
  4  5  1  0  0  0  0
  5  6  2  0  0  0  0
  5 10  1  0  0  0  0
  6  7  1  0  0  0  0
  7  8  2  0  0  0  0
  8 11  1  0  0  0  0
  9  8  1  0  0  0  0
 10  9  2  0  0  0  0
 11 12  1  0  0  0  0
 13  1  1  0  0  0  0
 14 17  1  6  0  0  0
 14 15  1  0  0  0  0
 14 13  1  0  0  0  0
 15 16  1  0  0  0  0
 18 17  1  0  0  0  0
 20 19  1  0  0  0  0
 20 18  1  0  0  0  0
M  END
>  <MODEL>
9

>  <REMARK>
 VINA RESULT:      -3.3      3.528     10.473
  Name = bg33_1_ligand
  12 active torsions:
  status: ('A' for Active; 'I' for Inactive)
    1  A    between atoms: C_1  and  C_2
    2  A    between atoms: C_2  and  C_3
    3  A    between atoms: C_3  and  C_4
    4  A    between atoms: C_4  and  C_5
    5  A    between atoms: C_5  and  C_6
    6  A    between atoms: C_5  and  O_8
    7  A    between atoms: C_6  and  C_7
    8  A    between atoms: O_8  and  C_9
    9  A    between atoms: C_9  and  C_11
   10  A    between atoms: C_12  and  C_13
   11  A    between atoms: C_16  and  O_17
   12  A    between atoms: O_17  and  C_18
                            x       y       z     vdW  Elec       q    Type
                         _______ _______ _______ _____ _____    ______ ____

>  <TORSDO>
F 9

$$$$
