ox2_orig_f8_pose0_reference
     RDKit          3D

 17 18  0  0  0  0  0  0  0  0999 V2000
    1.3130   -2.8750    2.4570 C   0  0  0  0  0  0  0  0  0  0  0  0
    1.4570   -1.5830    1.9430 O   0  0  0  0  0  0  0  0  0  0  0  0
    0.9210   -1.2730    0.7320 C   0  0  0  0  0  0  0  0  0  0  0  0
    1.0840    0.0220    0.2860 C   0  0  0  0  0  0  0  0  0  0  0  0
    0.5720    0.4090   -0.9310 C   0  0  0  0  0  0  0  0  0  0  0  0
   -0.0950   -0.5000   -1.7160 C   0  0  0  0  0  0  0  0  0  0  0  0
   -0.6330   -0.0610   -3.0080 C   0  0  0  0  0  0  0  0  0  0  0  0
   -1.6660   -0.3880   -3.2440 O   0  0  0  0  0  0  0  0  0  0  0  0
   -0.0710    0.8640   -3.9600 C   0  0  0  0  0  0  0  0  0  0  0  0
    1.2780    0.8930   -4.1800 C   0  0  0  0  0  0  0  0  0  0  0  0
    1.8150    1.7690   -5.0970 C   0  0  0  0  0  0  0  0  0  0  0  0
    1.0020    2.6350   -5.7890 C   0  0  0  0  0  0  0  0  0  0  0  0
   -0.3610    2.5950   -5.5860 C   0  0  0  0  0  0  0  0  0  0  0  0
   -0.9090    1.7010   -4.6780 C   0  0  0  0  0  0  0  0  0  0  0  0
   -0.2790   -1.8060   -1.2670 C   0  0  0  0  0  0  0  0  0  0  0  0
   -0.9560   -2.6860   -2.0220 O   0  0  0  0  0  0  0  0  0  0  0  0
    0.2350   -2.1800   -0.0460 C   0  0  0  0  0  0  0  0  0  0  0  0
  2  1  1  0
  3  2  1  0
  4  3  1  0
  5  4  2  0
  6  5  1  0
  7  6  1  0
  8  7  2  0
  9  7  1  0
 10  9  2  0
 11 10  1  0
 12 11  2  0
 13 12  1  0
 14 13  2  0
 14  9  1  0
 15  6  2  0
 16 15  1  0
 17 15  1  0
 17  3  2  0
M  END
>  <structure>  (1) 
ox2_orig_f8

>  <pose>  (1) 
0

>  <is_reference>  (1) 
1

>  <rmsd_to_reference_A>  (1) 
0.000

>  <vina_score>  (1) 


$$$$
