bgox31_3_pose0_reference
     RDKit          3D

 17 18  0  0  0  0  0  0  0  0999 V2000
    1.3150   -1.4400  -10.2460 C   0  0  0  0  0  0  0  0  0  0  0  0
    0.2620   -0.5340  -10.0770 O   0  0  0  0  0  0  0  0  0  0  0  0
   -0.0830   -0.1000   -8.7840 C   0  0  0  0  0  0  0  0  0  0  0  0
   -1.2550    0.5840   -8.5960 C   0  0  0  0  0  0  0  0  0  0  0  0
   -1.6140    1.0240   -7.3270 C   0  0  0  0  0  0  0  0  0  0  0  0
   -0.8000    0.8390   -6.2430 C   0  0  0  0  0  0  0  0  0  0  0  0
   -1.1900    1.2870   -4.8650 C   0  0  0  0  0  0  0  0  0  0  0  0
   -0.9600    0.5600   -3.9090 O   0  0  0  0  0  0  0  0  0  0  0  0
   -1.8760    2.6020   -4.6070 C   0  0  0  0  0  0  0  0  0  0  0  0
   -2.9080    2.6560   -3.7070 C   0  0  0  0  0  0  0  0  0  0  0  0
   -3.5390    3.8580   -3.5080 C   0  0  0  0  0  0  0  0  0  0  0  0
   -3.0540    4.9800   -4.0970 C   0  0  0  0  0  0  0  0  0  0  0  0
   -1.9400    4.9610   -4.9670 C   0  0  0  0  0  0  0  0  0  0  0  0
   -1.3890    3.7180   -5.2260 C   0  0  0  0  0  0  0  0  0  0  0  0
    0.4110    0.1540   -6.4540 C   0  0  0  0  0  0  0  0  0  0  0  0
    1.1710   -0.0800   -5.3110 O   0  0  0  0  0  0  0  0  0  0  0  0
    0.7620   -0.3160   -7.6710 C   0  0  0  0  0  0  0  0  0  0  0  0
  2  1  1  0
  3  2  1  0
  4  3  1  0
  5  4  2  0
  6  5  1  0
  7  6  1  0
  8  7  2  0
  9  7  1  0
 10  9  2  0
 11 10  1  0
 12 11  2  0
 13 12  1  0
 14 13  2  0
 14  9  1  0
 15  6  2  0
 16 15  1  0
 17 15  1  0
 17  3  2  0
M  END
>  <structure>  (1) 
bgox31_3

>  <pose>  (1) 
0

>  <is_reference>  (1) 
1

>  <rmsd_to_reference_A>  (1) 
0.000

>  <vina_score>  (1) 


$$$$
bgox31_3_pose1
     RDKit          3D

 17 18  0  0  0  0  0  0  0  0999 V2000
   -0.9170    1.1650  -12.7420 C   0  0  0  0  0  0  0  0  0  0  0  0
   -0.7810    0.0230  -11.9450 O   0  0  0  0  0  0  0  0  0  0  0  0
   -0.5770    0.1610  -10.5600 C   0  0  0  0  0  0  0  0  0  0  0  0
   -1.6550    0.1260   -9.7150 C   0  0  0  0  0  0  0  0  0  0  0  0
   -1.4760    0.2620   -8.3430 C   0  0  0  0  0  0  0  0  0  0  0  0
   -0.2410    0.4850   -7.7970 C   0  0  0  0  0  0  0  0  0  0  0  0
   -0.0340    0.6070   -6.3160 C   0  0  0  0  0  0  0  0  0  0  0  0
    0.8840   -0.0020   -5.7850 O   0  0  0  0  0  0  0  0  0  0  0  0
   -0.9270    1.4460   -5.4410 C   0  0  0  0  0  0  0  0  0  0  0  0
   -1.0450    2.7880   -5.6920 C   0  0  0  0  0  0  0  0  0  0  0  0
   -1.8420    3.5400   -4.8660 C   0  0  0  0  0  0  0  0  0  0  0  0
   -2.5890    2.9300   -3.9120 C   0  0  0  0  0  0  0  0  0  0  0  0
   -2.5450    1.5350   -3.6880 C   0  0  0  0  0  0  0  0  0  0  0  0
   -1.6560    0.8190   -4.4710 C   0  0  0  0  0  0  0  0  0  0  0  0
    0.8550    0.5400   -8.6770 C   0  0  0  0  0  0  0  0  0  0  0  0
    2.1000    0.6900   -8.0720 O   0  0  0  0  0  0  0  0  0  0  0  0
    0.7090    0.3720  -10.0100 C   0  0  0  0  0  0  0  0  0  0  0  0
  2  1  1  0
  3  2  1  0
  4  3  1  0
  5  4  2  0
  6  5  1  0
  7  6  1  0
  8  7  2  0
  9  7  1  0
 10  9  2  0
 11 10  1  0
 12 11  2  0
 13 12  1  0
 14 13  2  0
 14  9  1  0
 15  6  2  0
 16 15  1  0
 17 15  1  0
 17  3  2  0
M  END
>  <structure>  (2) 
bgox31_3

>  <pose>  (2) 
1

>  <is_reference>  (2) 
0

>  <rmsd_to_reference_A>  (2) 
2.255

>  <vina_score>  (2) 
-7.4

$$$$
bgox31_3_pose2
     RDKit          3D

 17 18  0  0  0  0  0  0  0  0999 V2000
   -4.3970    4.7740   -2.2620 C   0  0  0  0  0  0  0  0  0  0  0  0
   -3.7030    4.9730   -3.4600 O   0  0  0  0  0  0  0  0  0  0  0  0
   -2.9240    3.9320   -3.9960 C   0  0  0  0  0  0  0  0  0  0  0  0
   -2.0410    4.2050   -5.0080 C   0  0  0  0  0  0  0  0  0  0  0  0
   -1.2640    3.1900   -5.5530 C   0  0  0  0  0  0  0  0  0  0  0  0
   -1.3840    1.8900   -5.1430 C   0  0  0  0  0  0  0  0  0  0  0  0
   -0.5310    0.7920   -5.7060 C   0  0  0  0  0  0  0  0  0  0  0  0
    0.1180    0.0860   -4.9480 O   0  0  0  0  0  0  0  0  0  0  0  0
   -0.4250    0.5300   -7.1850 C   0  0  0  0  0  0  0  0  0  0  0  0
   -1.5670    0.4680   -7.9400 C   0  0  0  0  0  0  0  0  0  0  0  0
   -1.4500    0.1980   -9.2800 C   0  0  0  0  0  0  0  0  0  0  0  0
   -0.2210    0.1300   -9.8500 C   0  0  0  0  0  0  0  0  0  0  0  0
    0.9710    0.2710   -9.1040 C   0  0  0  0  0  0  0  0  0  0  0  0
    0.8210    0.4410   -7.7390 C   0  0  0  0  0  0  0  0  0  0  0  0
   -2.3090    1.6200   -4.1180 C   0  0  0  0  0  0  0  0  0  0  0  0
   -2.3420    0.2990   -3.6780 O   0  0  0  0  0  0  0  0  0  0  0  0
   -3.0470    2.5970   -3.5470 C   0  0  0  0  0  0  0  0  0  0  0  0
  2  1  1  0
  3  2  1  0
  4  3  1  0
  5  4  2  0
  6  5  1  0
  7  6  1  0
  8  7  2  0
  9  7  1  0
 10  9  2  0
 11 10  1  0
 12 11  2  0
 13 12  1  0
 14 13  2  0
 14  9  1  0
 15  6  2  0
 16 15  1  0
 17 15  1  0
 17  3  2  0
M  END
>  <structure>  (3) 
bgox31_3

>  <pose>  (3) 
2

>  <is_reference>  (3) 
0

>  <rmsd_to_reference_A>  (3) 
5.971

>  <vina_score>  (3) 
-7.1

$$$$
bgox31_3_pose3
     RDKit          3D

 17 18  0  0  0  0  0  0  0  0999 V2000
    1.9380   -0.9770   -9.4580 C   0  0  0  0  0  0  0  0  0  0  0  0
    0.6690   -0.3910   -9.5280 O   0  0  0  0  0  0  0  0  0  0  0  0
    0.0360    0.0440   -8.3490 C   0  0  0  0  0  0  0  0  0  0  0  0
   -1.2790    0.4260   -8.3940 C   0  0  0  0  0  0  0  0  0  0  0  0
   -1.9220    0.8610   -7.2420 C   0  0  0  0  0  0  0  0  0  0  0  0
   -1.2650    0.9720   -6.0470 C   0  0  0  0  0  0  0  0  0  0  0  0
   -1.9570    1.4160   -4.7920 C   0  0  0  0  0  0  0  0  0  0  0  0
   -2.4410    0.5780   -4.0440 O   0  0  0  0  0  0  0  0  0  0  0  0
   -2.0970    2.8670   -4.4170 C   0  0  0  0  0  0  0  0  0  0  0  0
   -2.9520    3.2190   -3.4050 C   0  0  0  0  0  0  0  0  0  0  0  0
   -3.0870    4.5500   -3.0980 C   0  0  0  0  0  0  0  0  0  0  0  0
   -2.2890    5.4660   -3.7020 C   0  0  0  0  0  0  0  0  0  0  0  0
   -1.3430    5.1150   -4.6920 C   0  0  0  0  0  0  0  0  0  0  0  0
   -1.3020    3.7790   -5.0510 C   0  0  0  0  0  0  0  0  0  0  0  0
    0.0910    0.5970   -6.0190 C   0  0  0  0  0  0  0  0  0  0  0  0
    0.7000    0.6510   -4.7670 O   0  0  0  0  0  0  0  0  0  0  0  0
    0.7260    0.1350   -7.1180 C   0  0  0  0  0  0  0  0  0  0  0  0
  2  1  1  0
  3  2  1  0
  4  3  1  0
  5  4  2  0
  6  5  1  0
  7  6  1  0
  8  7  2  0
  9  7  1  0
 10  9  2  0
 11 10  1  0
 12 11  2  0
 13 12  1  0
 14 13  2  0
 14  9  1  0
 15  6  2  0
 16 15  1  0
 17 15  1  0
 17  3  2  0
M  END
>  <structure>  (4) 
bgox31_3

>  <pose>  (4) 
3

>  <is_reference>  (4) 
0

>  <rmsd_to_reference_A>  (4) 
0.773

>  <vina_score>  (4) 
-7.0

$$$$
bgox31_3_pose4
     RDKit          3D

 17 18  0  0  0  0  0  0  0  0999 V2000
    2.0320   -1.0790   -9.1400 C   0  0  0  0  0  0  0  0  0  0  0  0
    2.2670   -0.6920   -7.8160 O   0  0  0  0  0  0  0  0  0  0  0  0
    1.2120   -0.1680   -7.0460 C   0  0  0  0  0  0  0  0  0  0  0  0
    1.3380   -0.1160   -5.6830 C   0  0  0  0  0  0  0  0  0  0  0  0
    0.3070    0.3950   -4.9030 C   0  0  0  0  0  0  0  0  0  0  0  0
   -0.8740    0.8120   -5.4530 C   0  0  0  0  0  0  0  0  0  0  0  0
   -1.9830    1.3890   -4.6220 C   0  0  0  0  0  0  0  0  0  0  0  0
   -2.8820    0.6590   -4.2300 O   0  0  0  0  0  0  0  0  0  0  0  0
   -2.0450    2.8490   -4.2610 C   0  0  0  0  0  0  0  0  0  0  0  0
   -1.3060    3.7510   -4.9800 C   0  0  0  0  0  0  0  0  0  0  0  0
   -1.3540    5.0730   -4.6160 C   0  0  0  0  0  0  0  0  0  0  0  0
   -2.2190    5.4760   -3.6510 C   0  0  0  0  0  0  0  0  0  0  0  0
   -3.0500    4.5730   -2.9510 C   0  0  0  0  0  0  0  0  0  0  0  0
   -2.9050    3.2340   -3.2710 C   0  0  0  0  0  0  0  0  0  0  0  0
   -0.9990    0.7330   -6.8520 C   0  0  0  0  0  0  0  0  0  0  0  0
   -2.1860    1.2390   -7.3750 O   0  0  0  0  0  0  0  0  0  0  0  0
    0.0050    0.2750   -7.6330 C   0  0  0  0  0  0  0  0  0  0  0  0
  2  1  1  0
  3  2  1  0
  4  3  1  0
  5  4  2  0
  6  5  1  0
  7  6  1  0
  8  7  2  0
  9  7  1  0
 10  9  2  0
 11 10  1  0
 12 11  2  0
 13 12  1  0
 14 13  2  0
 14  9  1  0
 15  6  2  0
 16 15  1  0
 17 15  1  0
 17  3  2  0
M  END
>  <structure>  (5) 
bgox31_3

>  <pose>  (5) 
4

>  <is_reference>  (5) 
0

>  <rmsd_to_reference_A>  (5) 
2.039

>  <vina_score>  (5) 
-6.8

$$$$
bgox31_3_pose5
     RDKit          3D

 17 18  0  0  0  0  0  0  0  0999 V2000
    2.1310   -1.3070   -0.6180 C   0  0  0  0  0  0  0  0  0  0  0  0
    1.0320   -1.7170   -1.3810 O   0  0  0  0  0  0  0  0  0  0  0  0
    0.6390   -0.9590   -2.4990 C   0  0  0  0  0  0  0  0  0  0  0  0
    1.5790   -0.5870   -3.4230 C   0  0  0  0  0  0  0  0  0  0  0  0
    1.2120    0.1640   -4.5340 C   0  0  0  0  0  0  0  0  0  0  0  0
   -0.0730    0.5960   -4.7190 C   0  0  0  0  0  0  0  0  0  0  0  0
   -0.4840    1.3850   -5.9270 C   0  0  0  0  0  0  0  0  0  0  0  0
   -0.9010    2.5260   -5.7870 O   0  0  0  0  0  0  0  0  0  0  0  0
   -0.4220    0.8190   -7.3210 C   0  0  0  0  0  0  0  0  0  0  0  0
   -1.5870    0.5530   -7.9910 C   0  0  0  0  0  0  0  0  0  0  0  0
   -1.5090    0.0100   -9.2490 C   0  0  0  0  0  0  0  0  0  0  0  0
   -0.3000   -0.1300   -9.8480 C   0  0  0  0  0  0  0  0  0  0  0  0
    0.9120    0.2130   -9.2060 C   0  0  0  0  0  0  0  0  0  0  0  0
    0.8050    0.6630   -7.9010 C   0  0  0  0  0  0  0  0  0  0  0  0
   -1.0250    0.2250   -3.7510 C   0  0  0  0  0  0  0  0  0  0  0  0
   -2.3330    0.6200   -4.0190 O   0  0  0  0  0  0  0  0  0  0  0  0
   -0.6980   -0.5360   -2.6840 C   0  0  0  0  0  0  0  0  0  0  0  0
  2  1  1  0
  3  2  1  0
  4  3  1  0
  5  4  2  0
  6  5  1  0
  7  6  1  0
  8  7  2  0
  9  7  1  0
 10  9  2  0
 11 10  1  0
 12 11  2  0
 13 12  1  0
 14 13  2  0
 14  9  1  0
 15  6  2  0
 16 15  1  0
 17 15  1  0
 17  3  2  0
M  END
>  <structure>  (6) 
bgox31_3

>  <pose>  (6) 
5

>  <is_reference>  (6) 
0

>  <rmsd_to_reference_A>  (6) 
5.704

>  <vina_score>  (6) 
-6.5

$$$$
bgox31_3_pose6
     RDKit          3D

 17 18  0  0  0  0  0  0  0  0999 V2000
    2.5150   -2.5850    3.8050 C   0  0  0  0  0  0  0  0  0  0  0  0
    2.8680   -1.4410    3.0800 O   0  0  0  0  0  0  0  0  0  0  0  0
    2.7170   -1.4280    1.6820 C   0  0  0  0  0  0  0  0  0  0  0  0
    2.8840   -0.2520    1.0000 C   0  0  0  0  0  0  0  0  0  0  0  0
    2.7370   -0.2160   -0.3820 C   0  0  0  0  0  0  0  0  0  0  0  0
    2.3750   -1.3240   -1.0980 C   0  0  0  0  0  0  0  0  0  0  0  0
    2.2390   -1.3020   -2.5920 C   0  0  0  0  0  0  0  0  0  0  0  0
    3.0800   -1.8630   -3.2810 O   0  0  0  0  0  0  0  0  0  0  0  0
    1.1070   -0.5960   -3.2900 C   0  0  0  0  0  0  0  0  0  0  0  0
    1.3130   -0.0650   -4.5360 C   0  0  0  0  0  0  0  0  0  0  0  0
    0.2770    0.5990   -5.1430 C   0  0  0  0  0  0  0  0  0  0  0  0
   -0.9500    0.6050   -4.5650 C   0  0  0  0  0  0  0  0  0  0  0  0
   -1.2050   -0.0060   -3.3160 C   0  0  0  0  0  0  0  0  0  0  0  0
   -0.1160   -0.5800   -2.6830 C   0  0  0  0  0  0  0  0  0  0  0  0
    2.1850   -2.5210   -0.3820 C   0  0  0  0  0  0  0  0  0  0  0  0
    1.8950   -3.6400   -1.1580 O   0  0  0  0  0  0  0  0  0  0  0  0
    2.3600   -2.5880    0.9560 C   0  0  0  0  0  0  0  0  0  0  0  0
  2  1  1  0
  3  2  1  0
  4  3  1  0
  5  4  2  0
  6  5  1  0
  7  6  1  0
  8  7  2  0
  9  7  1  0
 10  9  2  0
 11 10  1  0
 12 11  2  0
 13 12  1  0
 14 13  2  0
 14  9  1  0
 15  6  2  0
 16 15  1  0
 17 15  1  0
 17  3  2  0
M  END
>  <structure>  (7) 
bgox31_3

>  <pose>  (7) 
6

>  <is_reference>  (7) 
0

>  <rmsd_to_reference_A>  (7) 
7.883

>  <vina_score>  (7) 
-6.4

$$$$
bgox31_3_pose7
     RDKit          3D

 17 18  0  0  0  0  0  0  0  0999 V2000
    2.2900   -2.0180   -1.4370 C   0  0  0  0  0  0  0  0  0  0  0  0
    2.3800   -1.5490   -2.7520 O   0  0  0  0  0  0  0  0  0  0  0  0
    1.3190   -0.8040   -3.3000 C   0  0  0  0  0  0  0  0  0  0  0  0
    0.1370   -0.7140   -2.6140 C   0  0  0  0  0  0  0  0  0  0  0  0
   -0.9240    0.0150   -3.1380 C   0  0  0  0  0  0  0  0  0  0  0  0
   -0.8480    0.6180   -4.3640 C   0  0  0  0  0  0  0  0  0  0  0  0
   -1.9780    1.4280   -4.9280 C   0  0  0  0  0  0  0  0  0  0  0  0
   -2.7120    0.9320   -5.7710 O   0  0  0  0  0  0  0  0  0  0  0  0
   -2.2420    2.8490   -4.5070 C   0  0  0  0  0  0  0  0  0  0  0  0
   -3.0650    3.0920   -3.4380 C   0  0  0  0  0  0  0  0  0  0  0  0
   -3.3150    4.3950   -3.0890 C   0  0  0  0  0  0  0  0  0  0  0  0
   -2.6520    5.4000   -3.7140 C   0  0  0  0  0  0  0  0  0  0  0  0
   -1.7370    5.1680   -4.7660 C   0  0  0  0  0  0  0  0  0  0  0  0
   -1.5830    3.8510   -5.1610 C   0  0  0  0  0  0  0  0  0  0  0  0
    0.3650    0.4990   -5.0680 C   0  0  0  0  0  0  0  0  0  0  0  0
    0.4240    1.1920   -6.2740 O   0  0  0  0  0  0  0  0  0  0  0  0
    1.4220   -0.1720   -4.5610 C   0  0  0  0  0  0  0  0  0  0  0  0
  2  1  1  0
  3  2  1  0
  4  3  1  0
  5  4  2  0
  6  5  1  0
  7  6  1  0
  8  7  2  0
  9  7  1  0
 10  9  2  0
 11 10  1  0
 12 11  2  0
 13 12  1  0
 14 13  2  0
 14  9  1  0
 15  6  2  0
 16 15  1  0
 17 15  1  0
 17  3  2  0
M  END
>  <structure>  (8) 
bgox31_3

>  <pose>  (8) 
7

>  <is_reference>  (8) 
0

>  <rmsd_to_reference_A>  (8) 
3.887

>  <vina_score>  (8) 
-6.2

$$$$
bgox31_3_pose8
     RDKit          3D

 17 18  0  0  0  0  0  0  0  0999 V2000
   -2.3460    3.0860   -4.1440 C   0  0  0  0  0  0  0  0  0  0  0  0
   -2.5480    1.8010   -4.6600 O   0  0  0  0  0  0  0  0  0  0  0  0
   -1.7100    1.3220   -5.6840 C   0  0  0  0  0  0  0  0  0  0  0  0
   -0.3520    1.3430   -5.5050 C   0  0  0  0  0  0  0  0  0  0  0  0
    0.4940    0.8770   -6.5050 C   0  0  0  0  0  0  0  0  0  0  0  0
    0.0140    0.4340   -7.7070 C   0  0  0  0  0  0  0  0  0  0  0  0
    0.9160   -0.0950   -8.7830 C   0  0  0  0  0  0  0  0  0  0  0  0
    1.2720    0.6460   -9.6880 O   0  0  0  0  0  0  0  0  0  0  0  0
    1.3960   -1.5220   -8.8050 C   0  0  0  0  0  0  0  0  0  0  0  0
    1.9420   -2.0650   -7.6710 C   0  0  0  0  0  0  0  0  0  0  0  0
    2.4000   -3.3580   -7.7210 C   0  0  0  0  0  0  0  0  0  0  0  0
    2.1890   -4.1060   -8.8330 C   0  0  0  0  0  0  0  0  0  0  0  0
    1.5550   -3.5900   -9.9870 C   0  0  0  0  0  0  0  0  0  0  0  0
    1.1960   -2.2540   -9.9410 C   0  0  0  0  0  0  0  0  0  0  0  0
   -1.3820    0.4370   -7.8860 C   0  0  0  0  0  0  0  0  0  0  0  0
   -1.8310   -0.0940   -9.0920 O   0  0  0  0  0  0  0  0  0  0  0  0
   -2.2250    0.8500   -6.9130 C   0  0  0  0  0  0  0  0  0  0  0  0
  2  1  1  0
  3  2  1  0
  4  3  1  0
  5  4  2  0
  6  5  1  0
  7  6  1  0
  8  7  2  0
  9  7  1  0
 10  9  2  0
 11 10  1  0
 12 11  2  0
 13 12  1  0
 14 13  2  0
 14  9  1  0
 15  6  2  0
 16 15  1  0
 17 15  1  0
 17  3  2  0
M  END
>  <structure>  (9) 
bgox31_3

>  <pose>  (9) 
8

>  <is_reference>  (9) 
0

>  <rmsd_to_reference_A>  (9) 
6.714

>  <vina_score>  (9) 
-6.2

$$$$
bgox31_3_pose9
     RDKit          3D

 17 18  0  0  0  0  0  0  0  0999 V2000
   -1.5890    0.7290   -3.9850 C   0  0  0  0  0  0  0  0  0  0  0  0
   -1.2250    1.6200   -5.0010 O   0  0  0  0  0  0  0  0  0  0  0  0
   -0.9040    1.1260   -6.2780 C   0  0  0  0  0  0  0  0  0  0  0  0
   -1.9140    0.7980   -7.1450 C   0  0  0  0  0  0  0  0  0  0  0  0
   -1.6190    0.3060   -8.4110 C   0  0  0  0  0  0  0  0  0  0  0  0
   -0.3310    0.0850   -8.8160 C   0  0  0  0  0  0  0  0  0  0  0  0
   -0.0020   -0.4210  -10.1900 C   0  0  0  0  0  0  0  0  0  0  0  0
    0.6040   -1.4760  -10.3130 O   0  0  0  0  0  0  0  0  0  0  0  0
   -0.3740    0.3320  -11.4390 C   0  0  0  0  0  0  0  0  0  0  0  0
    0.0030    1.6430  -11.5710 C   0  0  0  0  0  0  0  0  0  0  0  0
   -0.3710    2.3190  -12.7050 C   0  0  0  0  0  0  0  0  0  0  0  0
   -0.9850    1.6540  -13.7160 C   0  0  0  0  0  0  0  0  0  0  0  0
   -1.3130    0.2820  -13.6340 C   0  0  0  0  0  0  0  0  0  0  0  0
   -1.0120   -0.3470  -12.4380 C   0  0  0  0  0  0  0  0  0  0  0  0
    0.6960    0.4050   -7.9090 C   0  0  0  0  0  0  0  0  0  0  0  0
    1.9910    0.2380   -8.3910 O   0  0  0  0  0  0  0  0  0  0  0  0
    0.4340    0.9210   -6.6880 C   0  0  0  0  0  0  0  0  0  0  0  0
  2  1  1  0
  3  2  1  0
  4  3  1  0
  5  4  2  0
  6  5  1  0
  7  6  1  0
  8  7  2  0
  9  7  1  0
 10  9  2  0
 11 10  1  0
 12 11  2  0
 13 12  1  0
 14 13  2  0
 14  9  1  0
 15  6  2  0
 16 15  1  0
 17 15  1  0
 17  3  2  0
M  END
>  <structure>  (10) 
bgox31_3

>  <pose>  (10) 
9

>  <is_reference>  (10) 
0

>  <rmsd_to_reference_A>  (10) 
6.359

>  <vina_score>  (10) 
-6.1

$$$$
