ox2_shuffle_dockpose1
     RDKit          3D

 17 18  0  0  0  0  0  0  0  0999 V2000
    3.2120   -0.8870    6.4760 C   0  0  0  0  0  0  0  0  0  0  0  0
    2.8020   -1.9170    7.3390 O   0  0  0  0  0  0  0  0  0  0  0  0
    1.4950   -2.3320    7.3430 C   0  0  0  0  0  0  0  0  0  0  0  0
    1.2210   -3.5750    7.8920 C   0  0  0  0  0  0  0  0  0  0  0  0
   -0.0700   -4.0580    7.9230 C   0  0  0  0  0  0  0  0  0  0  0  0
   -1.1140   -3.3000    7.4100 C   0  0  0  0  0  0  0  0  0  0  0  0
   -2.5260   -3.8230    7.4450 C   0  0  0  0  0  0  0  0  0  0  0  0
   -3.3610   -3.2470    8.1050 O   0  0  0  0  0  0  0  0  0  0  0  0
   -2.8860   -5.0430    6.6930 C   0  0  0  0  0  0  0  0  0  0  0  0
   -3.2270   -4.9710    5.3470 C   0  0  0  0  0  0  0  0  0  0  0  0
   -3.5750   -6.1240    4.6610 C   0  0  0  0  0  0  0  0  0  0  0  0
   -3.5750   -7.3540    5.3160 C   0  0  0  0  0  0  0  0  0  0  0  0
   -3.2490   -7.4250    6.6650 C   0  0  0  0  0  0  0  0  0  0  0  0
   -2.9150   -6.2630    7.3640 C   0  0  0  0  0  0  0  0  0  0  0  0
   -0.8450   -2.0370    6.8620 C   0  0  0  0  0  0  0  0  0  0  0  0
   -1.8640   -1.2850    6.3610 O   0  0  0  0  0  0  0  0  0  0  0  0
    0.4620   -1.5680    6.8320 C   0  0  0  0  0  0  0  0  0  0  0  0
  2  1  1  0
  3  2  1  0
  4  3  1  0
  5  4  2  0
  6  5  1  0
  7  6  1  0
  8  7  2  0
  9  7  1  0
 10  9  2  0
 11 10  1  0
 12 11  2  0
 13 12  1  0
 14 13  2  0
 14  9  1  0
 15  6  2  0
 16 15  1  0
 17  3  2  0
 17 15  1  0
M  END
$$$$
