s2_esm2_control_ligand
 OpenBabel10092621043D

 20 20  0  0  1  0  0  0  0  0999 V2000
   -0.8680    4.5360    3.9720 C   0  0  0  0  0  0  0  0  0  0  0  0
   -0.8030    5.0640    5.0500 O   0  0  0  0  0  0  0  0  0  0  0  0
   -2.1360    4.3590    3.2210 C   0  0  0  0  0  3  0  0  0  0  0  0
   -3.1760    5.1950    3.4970 C   0  0  0  0  0  3  0  0  0  0  0  0
   -4.4720    5.1470    2.7890 C   0  0  0  0  0  0  0  0  0  0  0  0
   -4.4740    4.7780    1.4560 C   0  0  0  0  0  3  0  0  0  0  0  0
   -5.6580    4.6990    0.7480 C   0  0  0  0  0  3  0  0  0  0  0  0
   -6.8520    4.9870    1.3560 C   0  0  0  0  0  0  0  0  0  0  0  0
   -6.8550    5.3530    2.6840 C   0  0  0  0  0  3  0  0  0  0  0  0
   -5.6640    5.4330    3.3950 C   0  0  0  0  0  3  0  0  0  0  0  0
   -7.9830    4.8910    0.6190 O   0  0  0  0  0  0  0  0  0  0  0  0
   -8.6440    6.0690    0.1780 C   0  0  0  0  0  1  0  0  0  0  0  0
    0.2410    4.0790    3.3550 O   0  0  0  0  0  0  0  0  0  0  0  0
    0.2490    2.7680    2.8160 C   0  0  1  0  0  3  0  0  0  0  0  0
    1.4220    2.6500    1.8450 C   0  0  0  0  0  2  0  0  0  0  0  0
    2.1890    3.9450    1.6340 C   0  0  0  0  0  1  0  0  0  0  0  0
    0.4020    1.7610    3.9300 C   0  0  0  0  0  2  0  0  0  0  0  0
    1.6970    1.0100    3.8980 C   0  0  0  0  0  2  0  0  0  0  0  0
    3.1930    2.5740    5.1360 C   0  0  0  0  0  1  0  0  0  0  0  0
    2.5010    1.2160    5.1460 C   0  0  0  0  0  2  0  0  0  0  0  0
  1  2  2  0  0  0  0
  3  4  2  0  0  0  0
  3  1  1  0  0  0  0
  5 10  1  0  0  0  0
  5  4  1  0  0  0  0
  6  5  2  0  0  0  0
  7  8  2  0  0  0  0
  7  6  1  0  0  0  0
  8  9  1  0  0  0  0
  9 10  2  0  0  0  0
 11  8  1  0  0  0  0
 12 11  1  0  0  0  0
 13  1  1  0  0  0  0
 14 15  1  6  0  0  0
 14 13  1  0  0  0  0
 14 17  1  0  0  0  0
 16 15  1  0  0  0  0
 18 17  1  0  0  0  0
 18 20  1  0  0  0  0
 19 20  1  0  0  0  0
M  END
>  <MODEL>
1

>  <REMARK>
 VINA RESULT:      -4.4      0.000      0.000
  Name = s2_esm2_control_ligand
  12 active torsions:
  status: ('A' for Active; 'I' for Inactive)
    1  A    between atoms: C_1  and  C_2
    2  A    between atoms: C_2  and  C_3
    3  A    between atoms: C_3  and  C_4
    4  A    between atoms: C_4  and  C_5
    5  A    between atoms: C_5  and  C_6
    6  A    between atoms: C_5  and  O_8
    7  A    between atoms: C_6  and  C_7
    8  A    between atoms: O_8  and  C_9
    9  A    between atoms: C_9  and  C_11
   10  A    between atoms: C_12  and  C_13
   11  A    between atoms: C_16  and  O_17
   12  A    between atoms: O_17  and  C_18
                            x       y       z     vdW  Elec       q    Type
                         _______ _______ _______ _____ _____    ______ ____

>  <TORSDO>
F 9

$$$$
s2_esm2_control_ligand
 OpenBabel10092621043D

 20 20  0  0  1  0  0  0  0  0999 V2000
   -9.5280    4.2930    4.6360 C   0  0  0  0  0  0  0  0  0  0  0  0
  -10.0230    5.1880    5.2690 O   0  0  0  0  0  0  0  0  0  0  0  0
   -8.0790    4.2120    4.3260 C   0  0  0  0  0  3  0  0  0  0  0  0
   -7.5530    5.1040    3.4400 C   0  0  0  0  0  3  0  0  0  0  0  0
   -6.1210    5.1510    3.0820 C   0  0  0  0  0  0  0  0  0  0  0  0
   -5.2160    5.5180    4.0610 C   0  0  0  0  0  3  0  0  0  0  0  0
   -3.8610    5.5640    3.7870 C   0  0  0  0  0  3  0  0  0  0  0  0
   -3.3930    5.2460    2.5390 C   0  0  0  0  0  0  0  0  0  0  0  0
   -4.2910    4.8770    1.5630 C   0  0  0  0  0  3  0  0  0  0  0  0
   -5.6520    4.8320    1.8370 C   0  0  0  0  0  3  0  0  0  0  0  0
   -2.0580    5.3020    2.3260 O   0  0  0  0  0  0  0  0  0  0  0  0
   -1.2620    6.2280    3.0540 C   0  0  0  0  0  1  0  0  0  0  0  0
  -10.2790    3.2700    4.1770 O   0  0  0  0  0  0  0  0  0  0  0  0
  -10.7380    2.2820    5.0840 C   0  0  1  0  0  3  0  0  0  0  0  0
  -12.1910    1.9540    4.7470 C   0  0  0  0  0  2  0  0  0  0  0  0
  -12.7540    0.7630    5.5040 C   0  0  0  0  0  1  0  0  0  0  0  0
   -9.8890    1.0410    4.9550 C   0  0  0  0  0  2  0  0  0  0  0  0
   -8.9230    0.8440    6.0820 C   0  0  0  0  0  2  0  0  0  0  0  0
   -9.1390   -1.5620    5.4610 C   0  0  0  0  0  1  0  0  0  0  0  0
   -8.9330   -0.5650    6.5950 C   0  0  0  0  0  2  0  0  0  0  0  0
  1  2  2  0  0  0  0
  3  1  1  0  0  0  0
  4  3  2  0  0  0  0
  5  4  1  0  0  0  0
  5  6  1  0  0  0  0
  7  6  2  0  0  0  0
  8  7  1  0  0  0  0
  9 10  1  0  0  0  0
  9  8  2  0  0  0  0
 10  5  2  0  0  0  0
 11  8  1  0  0  0  0
 11 12  1  0  0  0  0
 13  1  1  0  0  0  0
 13 14  1  0  0  0  0
 14 15  1  6  0  0  0
 15 16  1  0  0  0  0
 17 14  1  0  0  0  0
 17 18  1  0  0  0  0
 18 20  1  0  0  0  0
 19 20  1  0  0  0  0
M  END
>  <MODEL>
2

>  <REMARK>
 VINA RESULT:      -4.4      4.492      8.878
  Name = s2_esm2_control_ligand
  12 active torsions:
  status: ('A' for Active; 'I' for Inactive)
    1  A    between atoms: C_1  and  C_2
    2  A    between atoms: C_2  and  C_3
    3  A    between atoms: C_3  and  C_4
    4  A    between atoms: C_4  and  C_5
    5  A    between atoms: C_5  and  C_6
    6  A    between atoms: C_5  and  O_8
    7  A    between atoms: C_6  and  C_7
    8  A    between atoms: O_8  and  C_9
    9  A    between atoms: C_9  and  C_11
   10  A    between atoms: C_12  and  C_13
   11  A    between atoms: C_16  and  O_17
   12  A    between atoms: O_17  and  C_18
                            x       y       z     vdW  Elec       q    Type
                         _______ _______ _______ _____ _____    ______ ____

>  <TORSDO>
F 9

$$$$
s2_esm2_control_ligand
 OpenBabel10092621043D

 20 20  0  0  1  0  0  0  0  0999 V2000
   -9.8300    4.5300    5.6300 C   0  0  0  0  0  0  0  0  0  0  0  0
   -9.9660    4.5730    6.8240 O   0  0  0  0  0  0  0  0  0  0  0  0
   -8.5330    4.7520    4.9440 C   0  0  0  0  0  3  0  0  0  0  0  0
   -8.4780    4.5970    3.5910 C   0  0  0  0  0  3  0  0  0  0  0  0
   -7.2590    4.8310    2.7910 C   0  0  0  0  0  0  0  0  0  0  0  0
   -7.3710    4.8250    1.4130 C   0  0  0  0  0  3  0  0  0  0  0  0
   -6.2670    5.0540    0.6140 C   0  0  0  0  0  3  0  0  0  0  0  0
   -5.0400    5.2910    1.1760 C   0  0  0  0  0  0  0  0  0  0  0  0
   -4.9240    5.3010    2.5480 C   0  0  0  0  0  3  0  0  0  0  0  0
   -6.0330    5.0690    3.3510 C   0  0  0  0  0  3  0  0  0  0  0  0
   -3.9920    5.5140    0.3490 O   0  0  0  0  0  0  0  0  0  0  0  0
   -4.2220    5.8420   -1.0150 C   0  0  0  0  0  1  0  0  0  0  0  0
  -10.8740    4.2480    4.8230 O   0  0  0  0  0  0  0  0  0  0  0  0
  -11.8760    3.3500    5.2680 C   0  0  1  0  0  3  0  0  0  0  0  0
  -13.2430    3.9530    4.9490 C   0  0  0  0  0  2  0  0  0  0  0  0
  -14.0590    4.3300    6.1740 C   0  0  0  0  0  1  0  0  0  0  0  0
  -11.7220    2.0250    4.5610 C   0  0  0  0  0  2  0  0  0  0  0  0
  -11.0460    0.9720    5.3830 C   0  0  0  0  0  2  0  0  0  0  0  0
   -8.7490    1.1080    6.3430 C   0  0  0  0  0  1  0  0  0  0  0  0
   -9.5800    0.8780    5.0860 C   0  0  0  0  0  2  0  0  0  0  0  0
  1  2  2  0  0  0  0
  3  1  1  0  0  0  0
  4  3  2  0  0  0  0
  5 10  1  0  0  0  0
  5  4  1  0  0  0  0
  6  5  2  0  0  0  0
  7  8  2  0  0  0  0
  7  6  1  0  0  0  0
  8  9  1  0  0  0  0
  9 10  2  0  0  0  0
 11  8  1  0  0  0  0
 12 11  1  0  0  0  0
 13 14  1  0  0  0  0
 13  1  1  0  0  0  0
 14 17  1  6  0  0  0
 15 14  1  0  0  0  0
 15 16  1  0  0  0  0
 17 18  1  0  0  0  0
 20 18  1  0  0  0  0
 20 19  1  0  0  0  0
M  END
>  <MODEL>
3

>  <REMARK>
 VINA RESULT:      -4.3      5.076      9.217
  Name = s2_esm2_control_ligand
  12 active torsions:
  status: ('A' for Active; 'I' for Inactive)
    1  A    between atoms: C_1  and  C_2
    2  A    between atoms: C_2  and  C_3
    3  A    between atoms: C_3  and  C_4
    4  A    between atoms: C_4  and  C_5
    5  A    between atoms: C_5  and  C_6
    6  A    between atoms: C_5  and  O_8
    7  A    between atoms: C_6  and  C_7
    8  A    between atoms: O_8  and  C_9
    9  A    between atoms: C_9  and  C_11
   10  A    between atoms: C_12  and  C_13
   11  A    between atoms: C_16  and  O_17
   12  A    between atoms: O_17  and  C_18
                            x       y       z     vdW  Elec       q    Type
                         _______ _______ _______ _____ _____    ______ ____

>  <TORSDO>
F 9

$$$$
s2_esm2_control_ligand
 OpenBabel10092621043D

 20 20  0  0  1  0  0  0  0  0999 V2000
   -9.8510    6.5300   -0.4390 C   0  0  0  0  0  0  0  0  0  0  0  0
  -10.6430    7.1450    0.2230 O   0  0  0  0  0  0  0  0  0  0  0  0
   -8.4210    6.3720   -0.0700 C   0  0  0  0  0  3  0  0  0  0  0  0
   -8.1090    5.5940    1.0040 C   0  0  0  0  0  3  0  0  0  0  0  0
   -6.7250    5.3270    1.4430 C   0  0  0  0  0  0  0  0  0  0  0  0
   -5.8220    4.8550    0.5070 C   0  0  0  0  0  3  0  0  0  0  0  0
   -4.5090    4.6030    0.8580 C   0  0  0  0  0  3  0  0  0  0  0  0
   -4.0790    4.8170    2.1420 C   0  0  0  0  0  0  0  0  0  0  0  0
   -4.9740    5.2900    3.0760 C   0  0  0  0  0  3  0  0  0  0  0  0
   -6.2940    5.5410    2.7240 C   0  0  0  0  0  3  0  0  0  0  0  0
   -2.7830    4.5590    2.4310 O   0  0  0  0  0  0  0  0  0  0  0  0
   -1.9520    5.5910    2.9440 C   0  0  0  0  0  1  0  0  0  0  0  0
  -10.2290    5.9110   -1.5770 O   0  0  0  0  0  0  0  0  0  0  0  0
  -11.0800    6.5870   -2.4870 C   0  0  1  0  0  3  0  0  0  0  0  0
  -10.5470    6.3680   -3.9010 C   0  0  0  0  0  2  0  0  0  0  0  0
   -9.0830    6.7330   -4.0790 C   0  0  0  0  0  1  0  0  0  0  0  0
  -12.4810    6.0360   -2.3770 C   0  0  0  0  0  2  0  0  0  0  0  0
  -13.5350    7.0850   -2.1960 C   0  0  0  0  0  2  0  0  0  0  0  0
  -13.7310    8.6550   -4.1240 C   0  0  0  0  0  1  0  0  0  0  0  0
  -14.2610    7.3820   -3.4740 C   0  0  0  0  0  2  0  0  0  0  0  0
  1  3  1  0  0  0  0
  1  2  2  0  0  0  0
  3  4  2  0  0  0  0
  4  5  1  0  0  0  0
  5 10  1  0  0  0  0
  6  7  1  0  0  0  0
  6  5  2  0  0  0  0
  7  8  2  0  0  0  0
  8 11  1  0  0  0  0
  8  9  1  0  0  0  0
 10  9  2  0  0  0  0
 11 12  1  0  0  0  0
 13  1  1  0  0  0  0
 14 15  1  6  0  0  0
 14 17  1  0  0  0  0
 14 13  1  0  0  0  0
 16 15  1  0  0  0  0
 17 18  1  0  0  0  0
 19 20  1  0  0  0  0
 20 18  1  0  0  0  0
M  END
>  <MODEL>
4

>  <REMARK>
 VINA RESULT:      -4.2      3.482     10.998
  Name = s2_esm2_control_ligand
  12 active torsions:
  status: ('A' for Active; 'I' for Inactive)
    1  A    between atoms: C_1  and  C_2
    2  A    between atoms: C_2  and  C_3
    3  A    between atoms: C_3  and  C_4
    4  A    between atoms: C_4  and  C_5
    5  A    between atoms: C_5  and  C_6
    6  A    between atoms: C_5  and  O_8
    7  A    between atoms: C_6  and  C_7
    8  A    between atoms: O_8  and  C_9
    9  A    between atoms: C_9  and  C_11
   10  A    between atoms: C_12  and  C_13
   11  A    between atoms: C_16  and  O_17
   12  A    between atoms: O_17  and  C_18
                            x       y       z     vdW  Elec       q    Type
                         _______ _______ _______ _____ _____    ______ ____

>  <TORSDO>
F 9

$$$$
s2_esm2_control_ligand
 OpenBabel10092621043D

 20 20  0  0  1  0  0  0  0  0999 V2000
   -1.1600    5.2270    3.4990 C   0  0  0  0  0  0  0  0  0  0  0  0
   -0.5420    5.6830    4.4240 O   0  0  0  0  0  0  0  0  0  0  0  0
   -2.5850    5.5440    3.2300 C   0  0  0  0  0  3  0  0  0  0  0  0
   -3.3020    4.6940    2.4430 C   0  0  0  0  0  3  0  0  0  0  0  0
   -4.7350    4.8770    2.1370 C   0  0  0  0  0  0  0  0  0  0  0  0
   -5.1340    4.8120    0.8150 C   0  0  0  0  0  3  0  0  0  0  0  0
   -6.4650    4.9590    0.4710 C   0  0  0  0  0  3  0  0  0  0  0  0
   -7.4130    5.1740    1.4380 C   0  0  0  0  0  0  0  0  0  0  0  0
   -7.0200    5.2370    2.7560 C   0  0  0  0  0  3  0  0  0  0  0  0
   -5.6830    5.0900    3.1010 C   0  0  0  0  0  3  0  0  0  0  0  0
   -8.7020    5.3080    1.0480 O   0  0  0  0  0  0  0  0  0  0  0  0
   -9.0080    5.9490   -0.1830 C   0  0  0  0  0  1  0  0  0  0  0  0
   -0.5730    4.3950    2.6150 O   0  0  0  0  0  0  0  0  0  0  0  0
    0.2330    3.3290    3.0910 C   0  0  1  0  0  3  0  0  0  0  0  0
   -0.6680    2.1260    3.3640 C   0  0  0  0  0  2  0  0  0  0  0  0
   -0.2910    1.3340    4.6040 C   0  0  0  0  0  1  0  0  0  0  0  0
    1.2660    2.9700    2.0510 C   0  0  0  0  0  2  0  0  0  0  0  0
    2.4840    3.8410    2.0770 C   0  0  0  0  0  2  0  0  0  0  0  0
    3.3290    5.9120    0.9740 C   0  0  0  0  0  1  0  0  0  0  0  0
    2.7110    4.5340    0.7670 C   0  0  0  0  0  2  0  0  0  0  0  0
  1  2  2  0  0  0  0
  3  1  1  0  0  0  0
  4  3  2  0  0  0  0
  5  4  1  0  0  0  0
  5 10  1  0  0  0  0
  6  5  2  0  0  0  0
  7  6  1  0  0  0  0
  7  8  2  0  0  0  0
  8  9  1  0  0  0  0
  9 10  2  0  0  0  0
 11  8  1  0  0  0  0
 12 11  1  0  0  0  0
 13 14  1  0  0  0  0
 13  1  1  0  0  0  0
 14 17  1  6  0  0  0
 14 15  1  0  0  0  0
 15 16  1  0  0  0  0
 17 18  1  0  0  0  0
 20 19  1  0  0  0  0
 20 18  1  0  0  0  0
M  END
>  <MODEL>
5

>  <REMARK>
 VINA RESULT:      -4.2      1.311      2.402
  Name = s2_esm2_control_ligand
  12 active torsions:
  status: ('A' for Active; 'I' for Inactive)
    1  A    between atoms: C_1  and  C_2
    2  A    between atoms: C_2  and  C_3
    3  A    between atoms: C_3  and  C_4
    4  A    between atoms: C_4  and  C_5
    5  A    between atoms: C_5  and  C_6
    6  A    between atoms: C_5  and  O_8
    7  A    between atoms: C_6  and  C_7
    8  A    between atoms: O_8  and  C_9
    9  A    between atoms: C_9  and  C_11
   10  A    between atoms: C_12  and  C_13
   11  A    between atoms: C_16  and  O_17
   12  A    between atoms: O_17  and  C_18
                            x       y       z     vdW  Elec       q    Type
                         _______ _______ _______ _____ _____    ______ ____

>  <TORSDO>
F 9

$$$$
s2_esm2_control_ligand
 OpenBabel10092621043D

 20 20  0  0  1  0  0  0  0  0999 V2000
   -9.1810    5.3000    4.2440 C   0  0  0  0  0  0  0  0  0  0  0  0
   -9.8400    6.3060    4.2390 O   0  0  0  0  0  0  0  0  0  0  0  0
   -7.9960    5.0910    3.3750 C   0  0  0  0  0  3  0  0  0  0  0  0
   -7.9150    5.7910    2.2080 C   0  0  0  0  0  3  0  0  0  0  0  0
   -6.7680    5.7010    1.2810 C   0  0  0  0  0  0  0  0  0  0  0  0
   -6.6550    6.6590    0.2900 C   0  0  0  0  0  3  0  0  0  0  0  0
   -5.5930    6.6340   -0.5960 C   0  0  0  0  0  3  0  0  0  0  0  0
   -4.6350    5.6590   -0.5050 C   0  0  0  0  0  0  0  0  0  0  0  0
   -4.7430    4.7050    0.4820 C   0  0  0  0  0  3  0  0  0  0  0  0
   -5.8100    4.7290    1.3710 C   0  0  0  0  0  3  0  0  0  0  0  0
   -3.6150    5.6830   -1.3940 O   0  0  0  0  0  0  0  0  0  0  0  0
   -3.5470    6.7170   -2.3680 C   0  0  0  0  0  1  0  0  0  0  0  0
   -9.4760    4.2830    5.0800 O   0  0  0  0  0  0  0  0  0  0  0  0
   -8.9750    2.9850    4.8010 C   0  0  1  0  0  3  0  0  0  0  0  0
   -8.1660    2.5100    6.0060 C   0  0  0  0  0  2  0  0  0  0  0  0
   -8.5260    1.1150    6.4880 C   0  0  0  0  0  1  0  0  0  0  0  0
  -10.1250    2.0400    4.5500 C   0  0  0  0  0  2  0  0  0  0  0  0
  -11.4750    2.6740    4.6880 C   0  0  0  0  0  2  0  0  0  0  0  0
  -12.2080    0.6730    5.9840 C   0  0  0  0  0  1  0  0  0  0  0  0
  -12.5600    1.6560    4.8740 C   0  0  0  0  0  2  0  0  0  0  0  0
  1 13  1  0  0  0  0
  2  1  2  0  0  0  0
  3  1  1  0  0  0  0
  4  3  2  0  0  0  0
  5 10  1  0  0  0  0
  5  4  1  0  0  0  0
  6  5  2  0  0  0  0
  7  8  2  0  0  0  0
  7  6  1  0  0  0  0
  8  9  1  0  0  0  0
  9 10  2  0  0  0  0
 11  8  1  0  0  0  0
 12 11  1  0  0  0  0
 14 17  1  1  0  0  0
 14 13  1  0  0  0  0
 14 15  1  0  0  0  0
 15 16  1  0  0  0  0
 17 18  1  0  0  0  0
 18 20  1  0  0  0  0
 20 19  1  0  0  0  0
M  END
>  <MODEL>
6

>  <REMARK>
 VINA RESULT:      -4.2      5.458      8.703
  Name = s2_esm2_control_ligand
  12 active torsions:
  status: ('A' for Active; 'I' for Inactive)
    1  A    between atoms: C_1  and  C_2
    2  A    between atoms: C_2  and  C_3
    3  A    between atoms: C_3  and  C_4
    4  A    between atoms: C_4  and  C_5
    5  A    between atoms: C_5  and  C_6
    6  A    between atoms: C_5  and  O_8
    7  A    between atoms: C_6  and  C_7
    8  A    between atoms: O_8  and  C_9
    9  A    between atoms: C_9  and  C_11
   10  A    between atoms: C_12  and  C_13
   11  A    between atoms: C_16  and  O_17
   12  A    between atoms: O_17  and  C_18
                            x       y       z     vdW  Elec       q    Type
                         _______ _______ _______ _____ _____    ______ ____

>  <TORSDO>
F 9

$$$$
s2_esm2_control_ligand
 OpenBabel10092621043D

 20 20  0  0  1  0  0  0  0  0999 V2000
  -10.4990    7.0630   -0.5650 C   0  0  0  0  0  0  0  0  0  0  0  0
  -11.2550    7.3500    0.3250 O   0  0  0  0  0  0  0  0  0  0  0  0
   -9.2220    6.3370   -0.3520 C   0  0  0  0  0  3  0  0  0  0  0  0
   -8.4130    6.7300    0.6710 C   0  0  0  0  0  3  0  0  0  0  0  0
   -7.1400    6.0600    1.0090 C   0  0  0  0  0  0  0  0  0  0  0  0
   -6.1350    6.0510    0.0590 C   0  0  0  0  0  3  0  0  0  0  0  0
   -4.9170    5.4550    0.3260 C   0  0  0  0  0  3  0  0  0  0  0  0
   -4.6860    4.8600    1.5390 C   0  0  0  0  0  0  0  0  0  0  0  0
   -5.6830    4.8690    2.4890 C   0  0  0  0  0  3  0  0  0  0  0  0
   -6.9070    5.4680    2.2200 C   0  0  0  0  0  3  0  0  0  0  0  0
   -3.4750    4.2940    1.7510 O   0  0  0  0  0  0  0  0  0  0  0  0
   -2.6820    4.7080    2.8560 C   0  0  0  0  0  1  0  0  0  0  0  0
  -10.7840    7.3750   -1.8460 O   0  0  0  0  0  0  0  0  0  0  0  0
  -11.3690    6.3950   -2.6870 C   0  0  1  0  0  3  0  0  0  0  0  0
  -12.8290    6.7740   -2.9270 C   0  0  0  0  0  2  0  0  0  0  0  0
  -13.8030    6.1650   -1.9330 C   0  0  0  0  0  1  0  0  0  0  0  0
  -10.6290    6.3470   -4.0010 C   0  0  0  0  0  2  0  0  0  0  0  0
   -9.5600    7.3870   -4.1370 C   0  0  0  0  0  2  0  0  0  0  0  0
   -7.2290    7.5220   -3.2620 C   0  0  0  0  0  1  0  0  0  0  0  0
   -8.1880    6.7840   -4.1870 C   0  0  0  0  0  2  0  0  0  0  0  0
  1  3  1  0  0  0  0
  1  2  2  0  0  0  0
  3  4  2  0  0  0  0
  4  5  1  0  0  0  0
  5 10  1  0  0  0  0
  6  7  1  0  0  0  0
  6  5  2  0  0  0  0
  7  8  2  0  0  0  0
  8 11  1  0  0  0  0
  8  9  1  0  0  0  0
 10  9  2  0  0  0  0
 11 12  1  0  0  0  0
 13  1  1  0  0  0  0
 14 17  1  6  0  0  0
 14 13  1  0  0  0  0
 15 14  1  0  0  0  0
 15 16  1  0  0  0  0
 18 17  1  0  0  0  0
 20 18  1  0  0  0  0
 20 19  1  0  0  0  0
M  END
>  <MODEL>
7

>  <REMARK>
 VINA RESULT:      -4.1      3.647     10.449
  Name = s2_esm2_control_ligand
  12 active torsions:
  status: ('A' for Active; 'I' for Inactive)
    1  A    between atoms: C_1  and  C_2
    2  A    between atoms: C_2  and  C_3
    3  A    between atoms: C_3  and  C_4
    4  A    between atoms: C_4  and  C_5
    5  A    between atoms: C_5  and  C_6
    6  A    between atoms: C_5  and  O_8
    7  A    between atoms: C_6  and  C_7
    8  A    between atoms: O_8  and  C_9
    9  A    between atoms: C_9  and  C_11
   10  A    between atoms: C_12  and  C_13
   11  A    between atoms: C_16  and  O_17
   12  A    between atoms: O_17  and  C_18
                            x       y       z     vdW  Elec       q    Type
                         _______ _______ _______ _____ _____    ______ ____

>  <TORSDO>
F 9

$$$$
s2_esm2_control_ligand
 OpenBabel10092621043D

 20 20  0  0  1  0  0  0  0  0999 V2000
  -12.6260    8.2010    0.6790 C   0  0  0  0  0  0  0  0  0  0  0  0
  -12.8920    9.2220    0.1030 O   0  0  0  0  0  0  0  0  0  0  0  0
  -13.3530    7.7250    1.8820 C   0  0  0  0  0  3  0  0  0  0  0  0
  -14.5580    7.1100    1.7130 C   0  0  0  0  0  3  0  0  0  0  0  0
  -15.3550    6.5570    2.8260 C   0  0  0  0  0  0  0  0  0  0  0  0
  -14.6820    5.9960    3.8960 C   0  0  0  0  0  3  0  0  0  0  0  0
  -15.3760    5.4780    4.9730 C   0  0  0  0  0  3  0  0  0  0  0  0
  -16.7450    5.5120    4.9990 C   0  0  0  0  0  0  0  0  0  0  0  0
  -17.4200    6.0730    3.9380 C   0  0  0  0  0  3  0  0  0  0  0  0
  -16.7230    6.5920    2.8540 C   0  0  0  0  0  3  0  0  0  0  0  0
  -17.3760    4.9950    6.0790 O   0  0  0  0  0  0  0  0  0  0  0  0
  -18.7940    4.8880    6.0890 C   0  0  0  0  0  1  0  0  0  0  0  0
  -11.6390    7.3930    0.2390 O   0  0  0  0  0  0  0  0  0  0  0  0
  -11.4820    7.1790   -1.1540 C   0  0  1  0  0  3  0  0  0  0  0  0
  -10.2270    6.3380   -1.3750 C   0  0  0  0  0  2  0  0  0  0  0  0
   -9.3280    6.8430   -2.4910 C   0  0  0  0  0  1  0  0  0  0  0  0
  -12.6890    6.4510   -1.6950 C   0  0  0  0  0  2  0  0  0  0  0  0
  -13.0220    6.7970   -3.1130 C   0  0  0  0  0  2  0  0  0  0  0  0
  -14.6480    8.3180   -4.2370 C   0  0  0  0  0  1  0  0  0  0  0  0
  -13.4870    8.2150   -3.2550 C   0  0  0  0  0  2  0  0  0  0  0  0
  1  3  1  0  0  0  0
  2  1  2  0  0  0  0
  4  3  2  0  0  0  0
  4  5  1  0  0  0  0
  5 10  2  0  0  0  0
  5  6  1  0  0  0  0
  6  7  2  0  0  0  0
  7  8  1  0  0  0  0
  8 11  1  0  0  0  0
  9  8  2  0  0  0  0
 10  9  1  0  0  0  0
 11 12  1  0  0  0  0
 13  1  1  0  0  0  0
 14 17  1  1  0  0  0
 14 13  1  0  0  0  0
 15 14  1  0  0  0  0
 16 15  1  0  0  0  0
 18 17  1  0  0  0  0
 19 20  1  0  0  0  0
 20 18  1  0  0  0  0
M  END
>  <MODEL>
8

>  <REMARK>
 VINA RESULT:      -4.0     10.251     13.357
  Name = s2_esm2_control_ligand
  12 active torsions:
  status: ('A' for Active; 'I' for Inactive)
    1  A    between atoms: C_1  and  C_2
    2  A    between atoms: C_2  and  C_3
    3  A    between atoms: C_3  and  C_4
    4  A    between atoms: C_4  and  C_5
    5  A    between atoms: C_5  and  C_6
    6  A    between atoms: C_5  and  O_8
    7  A    between atoms: C_6  and  C_7
    8  A    between atoms: O_8  and  C_9
    9  A    between atoms: C_9  and  C_11
   10  A    between atoms: C_12  and  C_13
   11  A    between atoms: C_16  and  O_17
   12  A    between atoms: O_17  and  C_18
                            x       y       z     vdW  Elec       q    Type
                         _______ _______ _______ _____ _____    ______ ____

>  <TORSDO>
F 9

$$$$
s2_esm2_control_ligand
 OpenBabel10092621043D

 20 20  0  0  1  0  0  0  0  0999 V2000
   -1.2730    5.4520    2.8040 C   0  0  0  0  0  0  0  0  0  0  0  0
   -1.0390    6.4150    2.1220 O   0  0  0  0  0  0  0  0  0  0  0  0
   -2.6440    4.9590    3.0830 C   0  0  0  0  0  3  0  0  0  0  0  0
   -3.6920    5.8080    2.8910 C   0  0  0  0  0  3  0  0  0  0  0  0
   -5.1040    5.4220    3.0940 C   0  0  0  0  0  0  0  0  0  0  0  0
   -5.8690    5.1370    1.9770 C   0  0  0  0  0  3  0  0  0  0  0  0
   -7.1910    4.7540    2.1080 C   0  0  0  0  0  3  0  0  0  0  0  0
   -7.7660    4.6510    3.3470 C   0  0  0  0  0  0  0  0  0  0  0  0
   -7.0070    4.9310    4.4620 C   0  0  0  0  0  3  0  0  0  0  0  0
   -5.6790    5.3170    4.3310 C   0  0  0  0  0  3  0  0  0  0  0  0
   -9.0620    4.2680    3.4190 O   0  0  0  0  0  0  0  0  0  0  0  0
   -9.4630    3.3020    4.3810 C   0  0  0  0  0  1  0  0  0  0  0  0
   -0.2730    4.7320    3.3520 O   0  0  0  0  0  0  0  0  0  0  0  0
    0.9320    4.5470    2.6270 C   0  0  1  0  0  3  0  0  0  0  0  0
    2.0980    5.0020    3.5020 C   0  0  0  0  0  2  0  0  0  0  0  0
    3.3030    4.0790    3.4650 C   0  0  0  0  0  1  0  0  0  0  0  0
    1.0940    3.0890    2.2750 C   0  0  0  0  0  2  0  0  0  0  0  0
    0.0510    2.1980    2.8750 C   0  0  0  0  0  2  0  0  0  0  0  0
    1.8220    0.7400    3.8540 C   0  0  0  0  0  1  0  0  0  0  0  0
    0.5380    1.5170    4.1190 C   0  0  0  0  0  2  0  0  0  0  0  0
  1  3  1  0  0  0  0
  1 13  1  0  0  0  0
  2  1  2  0  0  0  0
  4  3  2  0  0  0  0
  4  5  1  0  0  0  0
  5 10  1  0  0  0  0
  6  7  1  0  0  0  0
  6  5  2  0  0  0  0
  7  8  2  0  0  0  0
  8 11  1  0  0  0  0
  8  9  1  0  0  0  0
 10  9  2  0  0  0  0
 11 12  1  0  0  0  0
 14 17  1  1  0  0  0
 14 13  1  0  0  0  0
 14 15  1  0  0  0  0
 16 15  1  0  0  0  0
 17 18  1  0  0  0  0
 18 20  1  0  0  0  0
 19 20  1  0  0  0  0
M  END
>  <MODEL>
9

>  <REMARK>
 VINA RESULT:      -4.0      1.700      2.301
  Name = s2_esm2_control_ligand
  12 active torsions:
  status: ('A' for Active; 'I' for Inactive)
    1  A    between atoms: C_1  and  C_2
    2  A    between atoms: C_2  and  C_3
    3  A    between atoms: C_3  and  C_4
    4  A    between atoms: C_4  and  C_5
    5  A    between atoms: C_5  and  C_6
    6  A    between atoms: C_5  and  O_8
    7  A    between atoms: C_6  and  C_7
    8  A    between atoms: O_8  and  C_9
    9  A    between atoms: C_9  and  C_11
   10  A    between atoms: C_12  and  C_13
   11  A    between atoms: C_16  and  O_17
   12  A    between atoms: O_17  and  C_18
                            x       y       z     vdW  Elec       q    Type
                         _______ _______ _______ _____ _____    ______ ____

>  <TORSDO>
F 9

$$$$
