bg33_3_pose0_reference
     RDKit          3D

 20 20  0  0  0  0  0  0  0  0999 V2000
    3.1410    5.1760   -7.2480 C   0  0  0  0  0  0  0  0  0  0  0  0
    4.4140    4.3080   -7.1460 C   0  0  0  0  0  0  0  0  0  0  0  0
    4.1670    3.2130   -6.1580 C   0  0  0  0  0  0  0  0  0  0  0  0
    5.4690    2.5560   -5.6490 C   0  0  0  0  0  0  0  0  0  0  0  0
    5.1070    1.6830   -4.4610 C   0  0  1  0  0  0  0  0  0  0  0  0
    4.9770    0.2940   -4.8810 C   0  0  0  0  0  0  0  0  0  0  0  0
    6.1310   -0.5670   -4.4630 C   0  0  0  0  0  0  0  0  0  0  0  0
    6.1380    1.7610   -3.4260 O   0  0  0  0  0  0  0  0  0  0  0  0
    6.0420    2.6940   -2.5780 C   0  0  0  0  0  0  0  0  0  0  0  0
    5.3260    3.6270   -2.8590 O   0  0  0  0  0  0  0  0  0  0  0  0
    6.8480    2.6480   -1.2370 C   0  0  0  0  0  0  0  0  0  0  0  0
    6.2770    2.0730   -0.1540 C   0  0  0  0  0  0  0  0  0  0  0  0
    6.9120    2.0780    1.1390 C   0  0  0  0  0  0  0  0  0  0  0  0
    7.0370    3.2390    1.8690 C   0  0  0  0  0  0  0  0  0  0  0  0
    7.5810    3.2610    3.1020 C   0  0  0  0  0  0  0  0  0  0  0  0
    8.0280    2.0750    3.6380 C   0  0  0  0  0  0  0  0  0  0  0  0
    8.6200    2.0160    4.8500 O   0  0  0  0  0  0  0  0  0  0  0  0
    8.3110    3.0760    5.7380 C   0  0  0  0  0  0  0  0  0  0  0  0
    7.9530    0.9150    2.9310 C   0  0  0  0  0  0  0  0  0  0  0  0
    7.3830    0.9180    1.6760 C   0  0  0  0  0  0  0  0  0  0  0  0
  2  1  1  0
  3  2  1  0
  4  3  1  0
  5  4  1  6
  6  5  1  0
  7  6  1  0
  8  5  1  0
  9  8  1  0
 10  9  2  0
 11  9  1  0
 12 11  2  3
 13 12  1  0
 14 13  1  0
 15 14  2  0
 16 15  1  0
 17 16  1  0
 18 17  1  0
 19 16  2  0
 20 19  1  0
 20 13  2  0
M  END
>  <structure>  (1) 
bg33_3

>  <pose>  (1) 
0

>  <is_reference>  (1) 
1

>  <rmsd_to_reference_A>  (1) 
0.000

>  <vina_score>  (1) 


$$$$
