s2_esm2_control_dockpose1
     RDKit          3D

 20 20  0  0  0  0  0  0  0  0999 V2000
   -5.1980   -2.3350    2.8350 C   0  0  0  0  0  0  0  0  0  0  0  0
   -4.3460   -1.2290    2.2220 C   0  0  0  0  0  0  0  0  0  0  0  0
   -3.4300   -0.6230    3.2450 C   0  0  0  0  0  0  0  0  0  0  0  0
   -3.7520   -1.0840    4.6320 C   0  0  0  0  0  0  0  0  0  0  0  0
   -4.0100    0.0390    5.6070 C   0  0  2  0  0  0  0  0  0  0  0  0
   -4.9190   -0.4510    6.7320 C   0  0  0  0  0  0  0  0  0  0  0  0
   -5.3070   -1.9160    6.6280 C   0  0  0  0  0  0  0  0  0  0  0  0
   -4.6550    1.1100    4.9410 O   0  0  0  0  0  0  0  0  0  0  0  0
   -4.3990    2.3780    5.3240 C   0  0  0  0  0  0  0  0  0  0  0  0
   -5.2630    3.2140    5.3120 O   0  0  0  0  0  0  0  0  0  0  0  0
   -3.0080    2.6430    5.7720 C   0  0  0  0  0  0  0  0  0  0  0  0
   -2.8110    3.5200    6.7960 C   0  0  0  0  0  0  0  0  0  0  0  0
   -1.4820    3.8320    7.3580 C   0  0  0  0  0  0  0  0  0  0  0  0
   -1.4080    4.2110    8.6860 C   0  0  0  0  0  0  0  0  0  0  0  0
   -0.1890    4.5000    9.2700 C   0  0  0  0  0  0  0  0  0  0  0  0
    0.9690    4.4160    8.5420 C   0  0  0  0  0  0  0  0  0  0  0  0
    2.1360    4.7060    9.1620 O   0  0  0  0  0  0  0  0  0  0  0  0
    3.3100    4.9380    8.3930 C   0  0  0  0  0  0  0  0  0  0  0  0
    0.9000    4.0360    7.2200 C   0  0  0  0  0  0  0  0  0  0  0  0
   -0.3250    3.7480    6.6320 C   0  0  0  0  0  0  0  0  0  0  0  0
  2  1  1  0
  3  2  1  0
  4  3  1  0
  5  4  1  6
  6  5  1  0
  7  6  1  0
  8  5  1  0
  9  8  1  0
 10  9  2  0
 11  9  1  0
 12 11  2  3
 13 12  1  0
 14 13  1  0
 15 14  2  0
 16 15  1  0
 17 16  1  0
 18 17  1  0
 19 16  2  0
 20 19  1  0
 20 13  2  0
M  END
