s3_orig_f12_ligand
 OpenBabel10092621083D

 20 20  0  0  1  0  0  0  0  0999 V2000
   -1.1200   -1.2380    2.7100 C   0  0  0  0  0  0  0  0  0  0  0  0
   -0.6980   -2.1910    2.1070 O   0  0  0  0  0  0  0  0  0  0  0  0
   -0.4690    0.0930    2.7250 C   0  0  0  0  0  3  0  0  0  0  0  0
    0.1650    0.5560    3.7990 C   0  0  0  0  0  3  0  0  0  0  0  0
    0.7490    1.9170    3.9060 C   0  0  0  0  0  0  0  0  0  0  0  0
    0.2890    2.7770    4.8890 C   0  0  0  0  0  3  0  0  0  0  0  0
    0.7590    4.0830    4.9610 C   0  0  0  0  0  3  0  0  0  0  0  0
    1.7360    4.5300    4.0950 C   0  0  0  0  0  0  0  0  0  0  0  0
    2.2270    3.6600    3.1590 C   0  0  0  0  0  3  0  0  0  0  0  0
    1.7360    2.3590    3.0610 C   0  0  0  0  0  3  0  0  0  0  0  0
    2.2450    5.8120    4.1410 O   0  0  0  0  0  0  0  0  0  0  0  0
    2.1430    6.5160    5.3660 C   0  0  0  0  0  1  0  0  0  0  0  0
   -2.1450   -1.3800    3.3900 O   0  0  0  0  0  0  0  0  0  0  0  0
   -3.2770   -1.1790    4.0360 C   0  0  1  0  0  3  0  0  0  0  0  0
   -4.0230   -2.4890    4.2060 C   0  0  0  0  0  2  0  0  0  0  0  0
   -5.5220   -2.3260    4.4360 C   0  0  0  0  0  1  0  0  0  0  0  0
   -3.0450   -0.5320    5.3920 C   0  0  0  0  0  2  0  0  0  0  0  0
   -3.1870    0.9550    5.4120 C   0  0  0  0  0  2  0  0  0  0  0  0
   -3.1410    2.6050    3.5350 C   0  0  0  0  0  1  0  0  0  0  0  0
   -3.9130    1.4860    4.2020 C   0  0  0  0  0  2  0  0  0  0  0  0
  1  3  1  0  0  0  0
  1 13  1  0  0  0  0
  2  1  2  0  0  0  0
  3  4  2  0  0  0  0
  4  5  1  0  0  0  0
  5  6  1  0  0  0  0
  6  7  2  0  0  0  0
  8 11  1  0  0  0  0
  8  7  1  0  0  0  0
  9  8  2  0  0  0  0
 10  9  1  0  0  0  0
 10  5  2  0  0  0  0
 11 12  1  0  0  0  0
 13 14  1  0  0  0  0
 14 15  1  1  0  0  0
 14 17  1  0  0  0  0
 15 16  1  0  0  0  0
 17 18  1  0  0  0  0
 19 20  1  0  0  0  0
 20 18  1  0  0  0  0
M  END
>  <MODEL>
1

>  <REMARK>
 VINA RESULT:      -3.9      0.000      0.000
  Name = s3_orig_f12_ligand
  12 active torsions:
  status: ('A' for Active; 'I' for Inactive)
    1  A    between atoms: C_1  and  C_2
    2  A    between atoms: C_2  and  C_3
    3  A    between atoms: C_3  and  C_4
    4  A    between atoms: C_4  and  C_5
    5  A    between atoms: C_5  and  C_6
    6  A    between atoms: C_5  and  O_8
    7  A    between atoms: C_6  and  C_7
    8  A    between atoms: O_8  and  C_9
    9  A    between atoms: C_9  and  C_11
   10  A    between atoms: C_12  and  C_13
   11  A    between atoms: C_16  and  O_17
   12  A    between atoms: O_17  and  C_18
                            x       y       z     vdW  Elec       q    Type
                         _______ _______ _______ _____ _____    ______ ____

>  <TORSDO>
F 9

$$$$
s3_orig_f12_ligand
 OpenBabel10092621083D

 20 20  0  0  1  0  0  0  0  0999 V2000
    1.9090    3.9000    2.8940 C   0  0  0  0  0  0  0  0  0  0  0  0
    2.2850    4.4320    1.8820 O   0  0  0  0  0  0  0  0  0  0  0  0
    1.1780    2.6110    2.9360 C   0  0  0  0  0  3  0  0  0  0  0  0
   -0.1080    2.5410    3.2690 C   0  0  0  0  0  3  0  0  0  0  0  0
   -0.8660    1.2740    3.4230 C   0  0  0  0  0  0  0  0  0  0  0  0
   -0.2850    0.0830    3.0190 C   0  0  0  0  0  3  0  0  0  0  0  0
   -1.0020   -1.1070    3.0750 C   0  0  0  0  0  3  0  0  0  0  0  0
   -2.2830   -1.1360    3.5890 C   0  0  0  0  0  0  0  0  0  0  0  0
   -2.8330    0.0350    4.0360 C   0  0  0  0  0  3  0  0  0  0  0  0
   -2.1310    1.2370    3.9530 C   0  0  0  0  0  3  0  0  0  0  0  0
   -3.0250   -2.2960    3.6800 O   0  0  0  0  0  0  0  0  0  0  0  0
   -4.3120   -2.2080    4.2640 C   0  0  0  0  0  1  0  0  0  0  0  0
    2.1130    4.4750    3.9720 O   0  0  0  0  0  0  0  0  0  0  0  0
    2.0180    5.2520    5.0330 C   0  0  1  0  0  3  0  0  0  0  0  0
    0.8230    6.1780    4.8990 C   0  0  0  0  0  2  0  0  0  0  0  0
   -0.4800    5.5920    5.4300 C   0  0  0  0  0  1  0  0  0  0  0  0
    1.9080    4.4430    6.3150 C   0  0  0  0  0  2  0  0  0  0  0  0
    2.8300    3.2700    6.4000 C   0  0  0  0  0  2  0  0  0  0  0  0
    0.6640    2.1160    6.8700 C   0  0  0  0  0  1  0  0  0  0  0  0
    2.0970    1.9540    6.4110 C   0  0  0  0  0  2  0  0  0  0  0  0
  1  3  1  0  0  0  0
  1 13  1  0  0  0  0
  2  1  2  0  0  0  0
  3  4  2  0  0  0  0
  4  5  1  0  0  0  0
  5 10  1  0  0  0  0
  6  7  1  0  0  0  0
  6  5  2  0  0  0  0
  7  8  2  0  0  0  0
  8 11  1  0  0  0  0
  8  9  1  0  0  0  0
 10  9  2  0  0  0  0
 11 12  1  0  0  0  0
 13 14  1  0  0  0  0
 14 15  1  6  0  0  0
 14 17  1  0  0  0  0
 15 16  1  0  0  0  0
 17 18  1  0  0  0  0
 18 20  1  0  0  0  0
 20 19  1  0  0  0  0
M  END
>  <MODEL>
2

>  <REMARK>
 VINA RESULT:      -3.8      1.572      6.850
  Name = s3_orig_f12_ligand
  12 active torsions:
  status: ('A' for Active; 'I' for Inactive)
    1  A    between atoms: C_1  and  C_2
    2  A    between atoms: C_2  and  C_3
    3  A    between atoms: C_3  and  C_4
    4  A    between atoms: C_4  and  C_5
    5  A    between atoms: C_5  and  C_6
    6  A    between atoms: C_5  and  O_8
    7  A    between atoms: C_6  and  C_7
    8  A    between atoms: O_8  and  C_9
    9  A    between atoms: C_9  and  C_11
   10  A    between atoms: C_12  and  C_13
   11  A    between atoms: C_16  and  O_17
   12  A    between atoms: O_17  and  C_18
                            x       y       z     vdW  Elec       q    Type
                         _______ _______ _______ _____ _____    ______ ____

>  <TORSDO>
F 9

$$$$
s3_orig_f12_ligand
 OpenBabel10092621083D

 20 20  0  0  1  0  0  0  0  0999 V2000
   -0.9950   -0.5570    2.5760 C   0  0  0  0  0  0  0  0  0  0  0  0
   -0.7820   -1.1650    1.5580 O   0  0  0  0  0  0  0  0  0  0  0  0
   -0.1440    0.5450    3.0810 C   0  0  0  0  0  3  0  0  0  0  0  0
   -0.5980    1.7900    3.2000 C   0  0  0  0  0  3  0  0  0  0  0  0
    0.2330    2.9510    3.6060 C   0  0  0  0  0  0  0  0  0  0  0  0
    1.2820    3.3510    2.7950 C   0  0  0  0  0  3  0  0  0  0  0  0
    2.1270    4.3820    3.1910 C   0  0  0  0  0  3  0  0  0  0  0  0
    1.9020    5.0670    4.3670 C   0  0  0  0  0  0  0  0  0  0  0  0
    0.8320    4.7030    5.1400 C   0  0  0  0  0  3  0  0  0  0  0  0
    0.0000    3.6480    4.7650 C   0  0  0  0  0  3  0  0  0  0  0  0
    2.7030    6.1070    4.7910 O   0  0  0  0  0  0  0  0  0  0  0  0
    2.1380    7.0500    5.6840 C   0  0  0  0  0  1  0  0  0  0  0  0
   -1.9680   -0.8890    3.2660 O   0  0  0  0  0  0  0  0  0  0  0  0
   -3.0610   -0.8850    4.0050 C   0  0  1  0  0  3  0  0  0  0  0  0
   -3.6230   -2.2900    4.1170 C   0  0  0  0  0  2  0  0  0  0  0  0
   -5.1240   -2.3400    4.3820 C   0  0  0  0  0  1  0  0  0  0  0  0
   -2.8010   -0.3160    5.3910 C   0  0  0  0  0  2  0  0  0  0  0  0
   -2.0740   -1.2310    6.3200 C   0  0  0  0  0  2  0  0  0  0  0  0
    0.3340   -1.7920    5.9540 C   0  0  0  0  0  1  0  0  0  0  0  0
   -0.6470   -0.8080    6.5550 C   0  0  0  0  0  2  0  0  0  0  0  0
  1  3  1  0  0  0  0
  1 13  1  0  0  0  0
  2  1  2  0  0  0  0
  3  4  2  0  0  0  0
  4  5  1  0  0  0  0
  5 10  1  0  0  0  0
  6  7  1  0  0  0  0
  6  5  2  0  0  0  0
  7  8  2  0  0  0  0
  8 11  1  0  0  0  0
  8  9  1  0  0  0  0
 10  9  2  0  0  0  0
 11 12  1  0  0  0  0
 13 14  1  0  0  0  0
 14 15  1  1  0  0  0
 14 17  1  0  0  0  0
 15 16  1  0  0  0  0
 17 18  1  0  0  0  0
 18 20  1  0  0  0  0
 19 20  1  0  0  0  0
M  END
>  <MODEL>
3

>  <REMARK>
 VINA RESULT:      -3.7      1.245      2.230
  Name = s3_orig_f12_ligand
  12 active torsions:
  status: ('A' for Active; 'I' for Inactive)
    1  A    between atoms: C_1  and  C_2
    2  A    between atoms: C_2  and  C_3
    3  A    between atoms: C_3  and  C_4
    4  A    between atoms: C_4  and  C_5
    5  A    between atoms: C_5  and  C_6
    6  A    between atoms: C_5  and  O_8
    7  A    between atoms: C_6  and  C_7
    8  A    between atoms: O_8  and  C_9
    9  A    between atoms: C_9  and  C_11
   10  A    between atoms: C_12  and  C_13
   11  A    between atoms: C_16  and  O_17
   12  A    between atoms: O_17  and  C_18
                            x       y       z     vdW  Elec       q    Type
                         _______ _______ _______ _____ _____    ______ ____

>  <TORSDO>
F 9

$$$$
s3_orig_f12_ligand
 OpenBabel10092621083D

 20 20  0  0  1  0  0  0  0  0999 V2000
   -0.9530   -0.5830    2.6960 C   0  0  0  0  0  0  0  0  0  0  0  0
   -0.8210   -1.0620    1.5990 O   0  0  0  0  0  0  0  0  0  0  0  0
   -0.1310    0.5320    3.2220 C   0  0  0  0  0  3  0  0  0  0  0  0
   -0.5400    1.7970    3.1670 C   0  0  0  0  0  3  0  0  0  0  0  0
    0.2780    2.9620    3.5870 C   0  0  0  0  0  0  0  0  0  0  0  0
    1.3070    3.3990    2.7680 C   0  0  0  0  0  3  0  0  0  0  0  0
    2.1400    4.4350    3.1740 C   0  0  0  0  0  3  0  0  0  0  0  0
    1.9230    5.0890    4.3700 C   0  0  0  0  0  0  0  0  0  0  0  0
    0.8720    4.6890    5.1510 C   0  0  0  0  0  3  0  0  0  0  0  0
    0.0520    3.6290    4.7640 C   0  0  0  0  0  3  0  0  0  0  0  0
    2.7130    6.1330    4.8040 O   0  0  0  0  0  0  0  0  0  0  0  0
    2.1570    7.0280    5.7510 C   0  0  0  0  0  1  0  0  0  0  0  0
   -1.8050   -1.0690    3.4510 O   0  0  0  0  0  0  0  0  0  0  0  0
   -2.7930   -1.2360    4.3090 C   0  0  1  0  0  3  0  0  0  0  0  0
   -3.6820   -0.0050    4.3310 C   0  0  0  0  0  2  0  0  0  0  0  0
   -3.4040    0.9410    5.4930 C   0  0  0  0  0  1  0  0  0  0  0  0
   -3.6200   -2.4690    3.9830 C   0  0  0  0  0  2  0  0  0  0  0  0
   -5.0410   -2.4120    4.4400 C   0  0  0  0  0  2  0  0  0  0  0  0
   -5.8100   -1.9640    6.7760 C   0  0  0  0  0  1  0  0  0  0  0  0
   -5.2320   -2.9860    5.8210 C   0  0  0  0  0  2  0  0  0  0  0  0
  1  3  1  0  0  0  0
  1 13  1  0  0  0  0
  2  1  2  0  0  0  0
  4  3  2  0  0  0  0
  4  5  1  0  0  0  0
  5 10  1  0  0  0  0
  6  7  1  0  0  0  0
  6  5  2  0  0  0  0
  7  8  2  0  0  0  0
  8 11  1  0  0  0  0
  8  9  1  0  0  0  0
 10  9  2  0  0  0  0
 11 12  1  0  0  0  0
 13 14  1  0  0  0  0
 14 17  1  6  0  0  0
 14 15  1  0  0  0  0
 15 16  1  0  0  0  0
 17 18  1  0  0  0  0
 18 20  1  0  0  0  0
 20 19  1  0  0  0  0
M  END
>  <MODEL>
4

>  <REMARK>
 VINA RESULT:      -3.6      1.032      2.656
  Name = s3_orig_f12_ligand
  12 active torsions:
  status: ('A' for Active; 'I' for Inactive)
    1  A    between atoms: C_1  and  C_2
    2  A    between atoms: C_2  and  C_3
    3  A    between atoms: C_3  and  C_4
    4  A    between atoms: C_4  and  C_5
    5  A    between atoms: C_5  and  C_6
    6  A    between atoms: C_5  and  O_8
    7  A    between atoms: C_6  and  C_7
    8  A    between atoms: O_8  and  C_9
    9  A    between atoms: C_9  and  C_11
   10  A    between atoms: C_12  and  C_13
   11  A    between atoms: C_16  and  O_17
   12  A    between atoms: O_17  and  C_18
                            x       y       z     vdW  Elec       q    Type
                         _______ _______ _______ _____ _____    ______ ____

>  <TORSDO>
F 9

$$$$
s3_orig_f12_ligand
 OpenBabel10092621083D

 20 20  0  0  1  0  0  0  0  0999 V2000
   -0.8080   -0.8410    2.5350 C   0  0  0  0  0  0  0  0  0  0  0  0
   -0.8540   -0.9140    1.3340 O   0  0  0  0  0  0  0  0  0  0  0  0
   -1.3550   -1.8670    3.4530 C   0  0  0  0  0  3  0  0  0  0  0  0
   -2.6390   -1.8900    3.8010 C   0  0  0  0  0  3  0  0  0  0  0  0
   -3.2230   -2.8290    4.7900 C   0  0  0  0  0  0  0  0  0  0  0  0
   -4.4720   -3.3780    4.5490 C   0  0  0  0  0  3  0  0  0  0  0  0
   -5.0790   -4.1960    5.4950 C   0  0  0  0  0  3  0  0  0  0  0  0
   -4.4250   -4.5270    6.6640 C   0  0  0  0  0  0  0  0  0  0  0  0
   -3.1690   -4.0260    6.8750 C   0  0  0  0  0  3  0  0  0  0  0  0
   -2.5690   -3.1790    5.9440 C   0  0  0  0  0  3  0  0  0  0  0  0
   -4.9810   -5.3490    7.6230 O   0  0  0  0  0  0  0  0  0  0  0  0
   -4.2290   -6.4750    8.0400 C   0  0  0  0  0  1  0  0  0  0  0  0
   -0.3010    0.1680    3.0430 O   0  0  0  0  0  0  0  0  0  0  0  0
   -0.1090    1.3480    3.6000 C   0  0  1  0  0  3  0  0  0  0  0  0
   -1.3230    1.7420    4.4230 C   0  0  0  0  0  2  0  0  0  0  0  0
   -2.4910    2.2660    3.5950 C   0  0  0  0  0  1  0  0  0  0  0  0
    1.1370    1.3640    4.4710 C   0  0  0  0  0  2  0  0  0  0  0  0
    2.2510    2.2160    3.9580 C   0  0  0  0  0  2  0  0  0  0  0  0
    1.9760    4.5730    3.1750 C   0  0  0  0  0  1  0  0  0  0  0  0
    1.8250    3.1090    2.8210 C   0  0  0  0  0  2  0  0  0  0  0  0
  1 13  1  0  0  0  0
  1  3  1  0  0  0  0
  2  1  2  0  0  0  0
  3  4  2  0  0  0  0
  4  5  1  0  0  0  0
  5 10  1  0  0  0  0
  6  5  2  0  0  0  0
  6  7  1  0  0  0  0
  7  8  2  0  0  0  0
  8  9  1  0  0  0  0
  8 11  1  0  0  0  0
 10  9  2  0  0  0  0
 11 12  1  0  0  0  0
 13 14  1  0  0  0  0
 14 15  1  1  0  0  0
 14 17  1  0  0  0  0
 16 15  1  0  0  0  0
 18 17  1  0  0  0  0
 20 19  1  0  0  0  0
 20 18  1  0  0  0  0
M  END
>  <MODEL>
5

>  <REMARK>
 VINA RESULT:      -3.4      2.495      7.474
  Name = s3_orig_f12_ligand
  12 active torsions:
  status: ('A' for Active; 'I' for Inactive)
    1  A    between atoms: C_1  and  C_2
    2  A    between atoms: C_2  and  C_3
    3  A    between atoms: C_3  and  C_4
    4  A    between atoms: C_4  and  C_5
    5  A    between atoms: C_5  and  C_6
    6  A    between atoms: C_5  and  O_8
    7  A    between atoms: C_6  and  C_7
    8  A    between atoms: O_8  and  C_9
    9  A    between atoms: C_9  and  C_11
   10  A    between atoms: C_12  and  C_13
   11  A    between atoms: C_16  and  O_17
   12  A    between atoms: O_17  and  C_18
                            x       y       z     vdW  Elec       q    Type
                         _______ _______ _______ _____ _____    ______ ____

>  <TORSDO>
F 9

$$$$
s3_orig_f12_ligand
 OpenBabel10092621083D

 20 20  0  0  1  0  0  0  0  0999 V2000
   -3.2050    1.1540    4.3910 C   0  0  0  0  0  0  0  0  0  0  0  0
   -4.0100    0.5940    5.0910 O   0  0  0  0  0  0  0  0  0  0  0  0
   -3.5120    2.3330    3.5480 C   0  0  0  0  0  3  0  0  0  0  0  0
   -4.7520    2.6190    3.1610 C   0  0  0  0  0  3  0  0  0  0  0  0
   -5.1080    3.7270    2.2390 C   0  0  0  0  0  0  0  0  0  0  0  0
   -5.5590    3.4300    0.9630 C   0  0  0  0  0  3  0  0  0  0  0  0
   -5.8210    4.4470    0.0520 C   0  0  0  0  0  3  0  0  0  0  0  0
   -5.6960    5.7710    0.4180 C   0  0  0  0  0  0  0  0  0  0  0  0
   -5.3010    6.0610    1.6960 C   0  0  0  0  0  3  0  0  0  0  0  0
   -5.0050    5.0460    2.6040 C   0  0  0  0  0  3  0  0  0  0  0  0
   -5.9620    6.8130   -0.4470 O   0  0  0  0  0  0  0  0  0  0  0  0
   -5.6790    6.6150   -1.8210 C   0  0  0  0  0  1  0  0  0  0  0  0
   -2.0530    0.7020    4.3430 O   0  0  0  0  0  0  0  0  0  0  0  0
   -0.7560    0.5510    4.1570 C   0  0  1  0  0  3  0  0  0  0  0  0
   -0.4810    0.0890    2.7380 C   0  0  0  0  0  2  0  0  0  0  0  0
   -0.8350   -1.3710    2.4800 C   0  0  0  0  0  1  0  0  0  0  0  0
    0.0070    1.8340    4.4440 C   0  0  0  0  0  2  0  0  0  0  0  0
    0.3500    2.6450    3.2380 C   0  0  0  0  0  2  0  0  0  0  0  0
    2.2440    4.1270    2.5580 C   0  0  0  0  0  1  0  0  0  0  0  0
    1.8360    2.7390    3.0030 C   0  0  0  0  0  2  0  0  0  0  0  0
  1  2  2  0  0  0  0
  3  1  1  0  0  0  0
  4  3  2  0  0  0  0
  5 10  1  0  0  0  0
  5  4  1  0  0  0  0
  6  5  2  0  0  0  0
  7  8  2  0  0  0  0
  7  6  1  0  0  0  0
  8  9  1  0  0  0  0
  9 10  2  0  0  0  0
 11  8  1  0  0  0  0
 12 11  1  0  0  0  0
 13  1  1  0  0  0  0
 14 15  1  6  0  0  0
 14 13  1  0  0  0  0
 14 17  1  0  0  0  0
 16 15  1  0  0  0  0
 18 17  1  0  0  0  0
 19 20  1  0  0  0  0
 20 18  1  0  0  0  0
M  END
>  <MODEL>
6

>  <REMARK>
 VINA RESULT:      -3.4      3.625      6.321
  Name = s3_orig_f12_ligand
  12 active torsions:
  status: ('A' for Active; 'I' for Inactive)
    1  A    between atoms: C_1  and  C_2
    2  A    between atoms: C_2  and  C_3
    3  A    between atoms: C_3  and  C_4
    4  A    between atoms: C_4  and  C_5
    5  A    between atoms: C_5  and  C_6
    6  A    between atoms: C_5  and  O_8
    7  A    between atoms: C_6  and  C_7
    8  A    between atoms: O_8  and  C_9
    9  A    between atoms: C_9  and  C_11
   10  A    between atoms: C_12  and  C_13
   11  A    between atoms: C_16  and  O_17
   12  A    between atoms: O_17  and  C_18
                            x       y       z     vdW  Elec       q    Type
                         _______ _______ _______ _____ _____    ______ ____

>  <TORSDO>
F 9

$$$$
s3_orig_f12_ligand
 OpenBabel10092621083D

 20 20  0  0  1  0  0  0  0  0999 V2000
    0.8540   -0.0570    5.5680 C   0  0  0  0  0  0  0  0  0  0  0  0
    1.6910    0.0400    6.4270 O   0  0  0  0  0  0  0  0  0  0  0  0
   -0.1120   -1.1760    5.4680 C   0  0  0  0  0  3  0  0  0  0  0  0
   -1.3790   -0.9840    5.1110 C   0  0  0  0  0  3  0  0  0  0  0  0
   -2.4140   -2.0470    5.0880 C   0  0  0  0  0  0  0  0  0  0  0  0
   -2.3740   -3.0540    6.0400 C   0  0  0  0  0  3  0  0  0  0  0  0
   -3.2810   -4.1060    5.9930 C   0  0  0  0  0  3  0  0  0  0  0  0
   -4.2760   -4.1390    5.0370 C   0  0  0  0  0  0  0  0  0  0  0  0
   -4.3450   -3.1140    4.1310 C   0  0  0  0  0  3  0  0  0  0  0  0
   -3.4180   -2.0730    4.1530 C   0  0  0  0  0  3  0  0  0  0  0  0
   -5.2070   -5.1540    4.9640 O   0  0  0  0  0  0  0  0  0  0  0  0
   -6.4560   -4.8580    4.3640 C   0  0  0  0  0  1  0  0  0  0  0  0
    0.8120    0.8130    4.6880 O   0  0  0  0  0  0  0  0  0  0  0  0
    0.9580    1.4920    3.5650 C   0  0  1  0  0  3  0  0  0  0  0  0
   -0.3580    2.1340    3.1670 C   0  0  0  0  0  2  0  0  0  0  0  0
   -1.1160    2.7700    4.3270 C   0  0  0  0  0  1  0  0  0  0  0  0
    2.0400    2.5530    3.6850 C   0  0  0  0  0  2  0  0  0  0  0  0
    2.0610    3.5560    2.5790 C   0  0  0  0  0  2  0  0  0  0  0  0
    1.9280    5.0410    4.5850 C   0  0  0  0  0  1  0  0  0  0  0  0
    2.0960    4.9760    3.0820 C   0  0  0  0  0  2  0  0  0  0  0  0
  1  2  2  0  0  0  0
  3  1  1  0  0  0  0
  4  3  2  0  0  0  0
  5  4  1  0  0  0  0
  5  6  1  0  0  0  0
  7  6  2  0  0  0  0
  8  7  1  0  0  0  0
  9 10  1  0  0  0  0
  9  8  2  0  0  0  0
 10  5  2  0  0  0  0
 11  8  1  0  0  0  0
 12 11  1  0  0  0  0
 13  1  1  0  0  0  0
 14 15  1  1  0  0  0
 14 17  1  0  0  0  0
 14 13  1  0  0  0  0
 15 16  1  0  0  0  0
 18 20  1  0  0  0  0
 18 17  1  0  0  0  0
 20 19  1  0  0  0  0
M  END
>  <MODEL>
7

>  <REMARK>
 VINA RESULT:      -3.4      2.394      7.509
  Name = s3_orig_f12_ligand
  12 active torsions:
  status: ('A' for Active; 'I' for Inactive)
    1  A    between atoms: C_1  and  C_2
    2  A    between atoms: C_2  and  C_3
    3  A    between atoms: C_3  and  C_4
    4  A    between atoms: C_4  and  C_5
    5  A    between atoms: C_5  and  C_6
    6  A    between atoms: C_5  and  O_8
    7  A    between atoms: C_6  and  C_7
    8  A    between atoms: O_8  and  C_9
    9  A    between atoms: C_9  and  C_11
   10  A    between atoms: C_12  and  C_13
   11  A    between atoms: C_16  and  O_17
   12  A    between atoms: O_17  and  C_18
                            x       y       z     vdW  Elec       q    Type
                         _______ _______ _______ _____ _____    ______ ____

>  <TORSDO>
F 9

$$$$
s3_orig_f12_ligand
 OpenBabel10092621083D

 20 20  0  0  1  0  0  0  0  0999 V2000
   -0.7530   -0.8040    2.6020 C   0  0  0  0  0  0  0  0  0  0  0  0
   -0.9140   -0.7720    1.4090 O   0  0  0  0  0  0  0  0  0  0  0  0
   -1.3210   -1.8440    3.4910 C   0  0  0  0  0  3  0  0  0  0  0  0
   -2.6210   -1.9020    3.7680 C   0  0  0  0  0  3  0  0  0  0  0  0
   -3.2330   -2.8560    4.7260 C   0  0  0  0  0  0  0  0  0  0  0  0
   -2.5130   -3.2530    5.8420 C   0  0  0  0  0  3  0  0  0  0  0  0
   -3.0290   -4.2080    6.7110 C   0  0  0  0  0  3  0  0  0  0  0  0
   -4.2890   -4.7340    6.5150 C   0  0  0  0  0  0  0  0  0  0  0  0
   -5.0180   -4.3000    5.4400 C   0  0  0  0  0  3  0  0  0  0  0  0
   -4.4940   -3.3670    4.5470 C   0  0  0  0  0  3  0  0  0  0  0  0
   -4.8470   -5.6700    7.3610 O   0  0  0  0  0  0  0  0  0  0  0  0
   -3.9730   -6.3900    8.2130 C   0  0  0  0  0  1  0  0  0  0  0  0
   -0.0990    0.1050    3.1310 O   0  0  0  0  0  0  0  0  0  0  0  0
    0.3820    0.9950    3.9770 C   0  0  1  0  0  3  0  0  0  0  0  0
    1.5320    1.7540    3.3410 C   0  0  0  0  0  2  0  0  0  0  0  0
    2.5520    2.2900    4.3400 C   0  0  0  0  0  1  0  0  0  0  0  0
   -0.6900    1.9670    4.4430 C   0  0  0  0  0  2  0  0  0  0  0  0
   -1.6480    1.4130    5.4450 C   0  0  0  0  0  2  0  0  0  0  0  0
   -3.1970    1.9210    3.5520 C   0  0  0  0  0  1  0  0  0  0  0  0
   -3.0860    1.5520    5.0150 C   0  0  0  0  0  2  0  0  0  0  0  0
  1 13  1  0  0  0  0
  1  3  1  0  0  0  0
  2  1  2  0  0  0  0
  3  4  2  0  0  0  0
  4  5  1  0  0  0  0
  5  6  1  0  0  0  0
  6  7  2  0  0  0  0
  8  7  1  0  0  0  0
  8 11  1  0  0  0  0
  9  8  2  0  0  0  0
 10  5  2  0  0  0  0
 10  9  1  0  0  0  0
 11 12  1  0  0  0  0
 13 14  1  0  0  0  0
 14 15  1  6  0  0  0
 14 17  1  0  0  0  0
 15 16  1  0  0  0  0
 17 18  1  0  0  0  0
 19 20  1  0  0  0  0
 20 18  1  0  0  0  0
M  END
>  <MODEL>
8

>  <REMARK>
 VINA RESULT:      -3.3      2.511      7.408
  Name = s3_orig_f12_ligand
  12 active torsions:
  status: ('A' for Active; 'I' for Inactive)
    1  A    between atoms: C_1  and  C_2
    2  A    between atoms: C_2  and  C_3
    3  A    between atoms: C_3  and  C_4
    4  A    between atoms: C_4  and  C_5
    5  A    between atoms: C_5  and  C_6
    6  A    between atoms: C_5  and  O_8
    7  A    between atoms: C_6  and  C_7
    8  A    between atoms: O_8  and  C_9
    9  A    between atoms: C_9  and  C_11
   10  A    between atoms: C_12  and  C_13
   11  A    between atoms: C_16  and  O_17
   12  A    between atoms: O_17  and  C_18
                            x       y       z     vdW  Elec       q    Type
                         _______ _______ _______ _____ _____    ______ ____

>  <TORSDO>
F 9

$$$$
s3_orig_f12_ligand
 OpenBabel10092621083D

 20 20  0  0  1  0  0  0  0  0999 V2000
   -0.8000   -0.6940    2.6970 C   0  0  0  0  0  0  0  0  0  0  0  0
   -0.8390   -0.8660    1.5060 O   0  0  0  0  0  0  0  0  0  0  0  0
   -1.2290   -1.6990    3.6980 C   0  0  0  0  0  3  0  0  0  0  0  0
   -2.5120   -1.9900    3.9000 C   0  0  0  0  0  3  0  0  0  0  0  0
   -3.0060   -2.9120    4.9530 C   0  0  0  0  0  0  0  0  0  0  0  0
   -4.2660   -3.4740    4.8250 C   0  0  0  0  0  3  0  0  0  0  0  0
   -4.7870   -4.2760    5.8340 C   0  0  0  0  0  3  0  0  0  0  0  0
   -4.0390   -4.5770    6.9540 C   0  0  0  0  0  0  0  0  0  0  0  0
   -2.7730   -4.0630    7.0510 C   0  0  0  0  0  3  0  0  0  0  0  0
   -2.2570   -3.2320    6.0570 C   0  0  0  0  0  3  0  0  0  0  0  0
   -4.5080   -5.3820    7.9710 O   0  0  0  0  0  0  0  0  0  0  0  0
   -5.5500   -4.8720    8.7850 C   0  0  0  0  0  1  0  0  0  0  0  0
   -0.4090    0.4020    3.1200 O   0  0  0  0  0  0  0  0  0  0  0  0
   -0.0400    1.4060    3.8910 C   0  0  1  0  0  3  0  0  0  0  0  0
    1.0930    0.9760    4.8050 C   0  0  0  0  0  2  0  0  0  0  0  0
    0.6340    0.4810    6.1730 C   0  0  0  0  0  1  0  0  0  0  0  0
    0.3810    2.6180    3.0760 C   0  0  0  0  0  2  0  0  0  0  0  0
    1.8560    2.7780    2.9050 C   0  0  0  0  0  2  0  0  0  0  0  0
    1.7160    5.1210    3.7630 C   0  0  0  0  0  1  0  0  0  0  0  0
    2.2640    4.2130    2.6840 C   0  0  0  0  0  2  0  0  0  0  0  0
  1 13  1  0  0  0  0
  1  3  1  0  0  0  0
  2  1  2  0  0  0  0
  3  4  2  0  0  0  0
  4  5  1  0  0  0  0
  5 10  1  0  0  0  0
  6  5  2  0  0  0  0
  6  7  1  0  0  0  0
  7  8  2  0  0  0  0
  8  9  1  0  0  0  0
  8 11  1  0  0  0  0
 10  9  2  0  0  0  0
 11 12  1  0  0  0  0
 13 14  1  0  0  0  0
 14 17  1  6  0  0  0
 14 15  1  0  0  0  0
 15 16  1  0  0  0  0
 18 17  1  0  0  0  0
 20 18  1  0  0  0  0
 20 19  1  0  0  0  0
M  END
>  <MODEL>
9

>  <REMARK>
 VINA RESULT:      -3.3      2.558      7.543
  Name = s3_orig_f12_ligand
  12 active torsions:
  status: ('A' for Active; 'I' for Inactive)
    1  A    between atoms: C_1  and  C_2
    2  A    between atoms: C_2  and  C_3
    3  A    between atoms: C_3  and  C_4
    4  A    between atoms: C_4  and  C_5
    5  A    between atoms: C_5  and  C_6
    6  A    between atoms: C_5  and  O_8
    7  A    between atoms: C_6  and  C_7
    8  A    between atoms: O_8  and  C_9
    9  A    between atoms: C_9  and  C_11
   10  A    between atoms: C_12  and  C_13
   11  A    between atoms: C_16  and  O_17
   12  A    between atoms: O_17  and  C_18
                            x       y       z     vdW  Elec       q    Type
                         _______ _______ _______ _____ _____    ______ ____

>  <TORSDO>
F 9

$$$$
