bg33_1_ligand
 OpenBabel10092621133D

 20 20  0  0  1  0  0  0  0  0999 V2000
    1.6570   -6.1320    9.3290 C   0  0  0  0  0  0  0  0  0  0  0  0
    2.3160   -5.4190   10.0400 O   0  0  0  0  0  0  0  0  0  0  0  0
    1.5800   -7.5180    9.5630 C   0  0  0  0  0  3  0  0  0  0  0  0
    1.3380   -8.2670    8.5830 C   0  0  0  0  0  3  0  0  0  0  0  0
    1.0820   -9.6180    8.6780 C   0  0  0  0  0  0  0  0  0  0  0  0
    0.1980  -10.2220    7.8710 C   0  0  0  0  0  3  0  0  0  0  0  0
   -0.0680  -11.5490    7.9520 C   0  0  0  0  0  3  0  0  0  0  0  0
    0.6350  -12.2690    8.8730 C   0  0  0  0  0  0  0  0  0  0  0  0
    1.5230  -11.7260    9.6810 C   0  0  0  0  0  3  0  0  0  0  0  0
    1.7290  -10.3920    9.6020 C   0  0  0  0  0  3  0  0  0  0  0  0
    0.4230  -13.5550    9.0140 O   0  0  0  0  0  0  0  0  0  0  0  0
    0.5040  -14.2690    7.8280 C   0  0  0  0  0  1  0  0  0  0  0  0
    1.0040   -5.6280    8.3380 O   0  0  0  0  0  0  0  0  0  0  0  0
    0.1690   -4.7560    8.7060 C   0  0  1  0  0  3  0  0  0  0  0  0
    0.1160   -3.5980    7.7690 C   0  0  0  0  0  2  0  0  0  0  0  0
    0.4530   -2.3670    8.3740 C   0  0  0  0  0  1  0  0  0  0  0  0
   -1.0400   -5.2530    9.2150 C   0  0  0  0  0  2  0  0  0  0  0  0
   -2.0340   -5.4640    8.2260 C   0  0  0  0  0  2  0  0  0  0  0  0
   -2.0170   -7.4240    6.7940 C   0  0  0  0  0  1  0  0  0  0  0  0
   -2.1640   -6.9070    8.2080 C   0  0  0  0  0  2  0  0  0  0  0  0
  1  3  1  0  0  0  0
  1  2  2  0  0  0  0
  4  5  1  0  0  0  0
  4  3  2  0  0  0  0
  5 10  1  0  0  0  0
  6  7  1  0  0  0  0
  6  5  2  0  0  0  0
  7  8  2  0  0  0  0
  8 11  1  0  0  0  0
  8  9  1  0  0  0  0
 10  9  2  0  0  0  0
 12 11  1  0  0  0  0
 13 14  1  0  0  0  0
 13  1  1  0  0  0  0
 14 15  1  6  0  0  0
 14 17  1  0  0  0  0
 15 16  1  0  0  0  0
 18 17  1  0  0  0  0
 19 20  1  0  0  0  0
 20 18  1  0  0  0  0
M  END
>  <MODEL>
1

>  <REMARK>
 VINA RESULT:      -3.2      0.000      0.000
  Name = bg33_1_ligand
  12 active torsions:
  status: ('A' for Active; 'I' for Inactive)
    1  A    between atoms: C_1  and  C_2
    2  A    between atoms: C_2  and  C_3
    3  A    between atoms: C_3  and  C_4
    4  A    between atoms: C_4  and  C_5
    5  A    between atoms: C_5  and  C_6
    6  A    between atoms: C_5  and  O_8
    7  A    between atoms: C_6  and  C_7
    8  A    between atoms: O_8  and  C_9
    9  A    between atoms: C_9  and  C_11
   10  A    between atoms: C_12  and  C_13
   11  A    between atoms: C_16  and  O_17
   12  A    between atoms: O_17  and  C_18
                            x       y       z     vdW  Elec       q    Type
                         _______ _______ _______ _____ _____    ______ ____

>  <TORSDO>
F 9

$$$$
bg33_1_ligand
 OpenBabel10092621133D

 20 20  0  0  1  0  0  0  0  0999 V2000
   -0.3530   -1.4170    7.8920 C   0  0  0  0  0  0  0  0  0  0  0  0
   -1.1330   -0.5560    8.2010 O   0  0  0  0  0  0  0  0  0  0  0  0
   -0.4710   -2.7220    8.4070 C   0  0  0  0  0  3  0  0  0  0  0  0
    0.2180   -3.6290    7.8740 C   0  0  0  0  0  3  0  0  0  0  0  0
    0.0980   -4.9710    8.1630 C   0  0  0  0  0  0  0  0  0  0  0  0
   -1.0240   -5.6510    7.8810 C   0  0  0  0  0  3  0  0  0  0  0  0
   -1.1600   -6.9710    8.1600 C   0  0  0  0  0  3  0  0  0  0  0  0
   -0.0850   -7.6040    8.7110 C   0  0  0  0  0  0  0  0  0  0  0  0
    1.0430   -6.9850    8.9950 C   0  0  0  0  0  3  0  0  0  0  0  0
    1.1270   -5.6590    8.7440 C   0  0  0  0  0  3  0  0  0  0  0  0
   -0.1490   -8.8780    9.0160 O   0  0  0  0  0  0  0  0  0  0  0  0
    0.9820   -9.5970    8.6610 C   0  0  0  0  0  1  0  0  0  0  0  0
    0.6080   -1.1530    7.0740 O   0  0  0  0  0  0  0  0  0  0  0  0
    1.2280   -0.0980    7.3830 C   0  0  1  0  0  3  0  0  0  0  0  0
    2.3890   -0.3710    8.2770 C   0  0  0  0  0  2  0  0  0  0  0  0
    2.8980    0.7850    8.9100 C   0  0  0  0  0  1  0  0  0  0  0  0
    1.3930    0.8340    6.3470 C   0  0  0  0  0  2  0  0  0  0  0  0
    1.3170    0.2660    5.0500 C   0  0  0  0  0  2  0  0  0  0  0  0
    0.0020    1.9410    3.8840 C   0  0  0  0  0  1  0  0  0  0  0  0
    1.3920    1.4300    4.1890 C   0  0  0  0  0  2  0  0  0  0  0  0
  1  2  2  0  0  0  0
  1  3  1  0  0  0  0
  4  5  1  0  0  0  0
  4  3  2  0  0  0  0
  5 10  1  0  0  0  0
  6  7  1  0  0  0  0
  6  5  2  0  0  0  0
  7  8  2  0  0  0  0
  8  9  1  0  0  0  0
  8 11  1  0  0  0  0
 10  9  2  0  0  0  0
 12 11  1  0  0  0  0
 13 14  1  0  0  0  0
 13  1  1  0  0  0  0
 14 17  1  6  0  0  0
 14 15  1  0  0  0  0
 15 16  1  0  0  0  0
 18 17  1  0  0  0  0
 19 20  1  0  0  0  0
 20 18  1  0  0  0  0
M  END
>  <MODEL>
2

>  <REMARK>
 VINA RESULT:      -3.2      3.243      5.843
  Name = bg33_1_ligand
  12 active torsions:
  status: ('A' for Active; 'I' for Inactive)
    1  A    between atoms: C_1  and  C_2
    2  A    between atoms: C_2  and  C_3
    3  A    between atoms: C_3  and  C_4
    4  A    between atoms: C_4  and  C_5
    5  A    between atoms: C_5  and  C_6
    6  A    between atoms: C_5  and  O_8
    7  A    between atoms: C_6  and  C_7
    8  A    between atoms: O_8  and  C_9
    9  A    between atoms: C_9  and  C_11
   10  A    between atoms: C_12  and  C_13
   11  A    between atoms: C_16  and  O_17
   12  A    between atoms: O_17  and  C_18
                            x       y       z     vdW  Elec       q    Type
                         _______ _______ _______ _____ _____    ______ ____

>  <TORSDO>
F 9

$$$$
bg33_1_ligand
 OpenBabel10092621133D

 20 20  0  0  1  0  0  0  0  0999 V2000
    0.2800   -5.3580    8.4380 C   0  0  0  0  0  0  0  0  0  0  0  0
    1.3150   -5.9680    8.3930 O   0  0  0  0  0  0  0  0  0  0  0  0
    0.1510   -4.1000    7.8180 C   0  0  0  0  0  3  0  0  0  0  0  0
    0.4070   -3.0780    8.5030 C   0  0  0  0  0  3  0  0  0  0  0  0
    0.1820   -1.7830    8.0870 C   0  0  0  0  0  0  0  0  0  0  0  0
    0.9540   -1.2010    7.1580 C   0  0  0  0  0  3  0  0  0  0  0  0
    0.7470    0.0710    6.7380 C   0  0  0  0  0  3  0  0  0  0  0  0
   -0.3160    0.7380    7.2750 C   0  0  0  0  0  0  0  0  0  0  0  0
   -1.1120    0.2070    8.1800 C   0  0  0  0  0  3  0  0  0  0  0  0
   -0.8480   -1.0480    8.6080 C   0  0  0  0  0  3  0  0  0  0  0  0
   -0.5690    1.9750    6.9220 O   0  0  0  0  0  0  0  0  0  0  0  0
   -0.2440    2.2610    5.6050 C   0  0  0  0  0  1  0  0  0  0  0  0
   -0.7350   -5.8560    9.0580 O   0  0  0  0  0  0  0  0  0  0  0  0
   -1.7600   -5.9270    8.3240 C   0  0  1  0  0  3  0  0  0  0  0  0
   -1.6890   -7.0690    7.3680 C   0  0  0  0  0  2  0  0  0  0  0  0
   -2.4830   -6.8890    6.2140 C   0  0  0  0  0  1  0  0  0  0  0  0
   -2.9820   -5.6720    8.9640 C   0  0  0  0  0  2  0  0  0  0  0  0
   -3.0680   -4.3790    9.5390 C   0  0  0  0  0  2  0  0  0  0  0  0
   -4.8810   -4.0410    7.9620 C   0  0  0  0  0  1  0  0  0  0  0  0
   -3.5240   -3.5670    8.4290 C   0  0  0  0  0  2  0  0  0  0  0  0
  1 13  1  0  0  0  0
  2  1  2  0  0  0  0
  3  1  1  0  0  0  0
  3  4  2  0  0  0  0
  5  4  1  0  0  0  0
  5 10  1  0  0  0  0
  6  5  2  0  0  0  0
  7  6  1  0  0  0  0
  7  8  2  0  0  0  0
  8  9  1  0  0  0  0
  9 10  2  0  0  0  0
 11  8  1  0  0  0  0
 12 11  1  0  0  0  0
 14 15  1  1  0  0  0
 14 17  1  0  0  0  0
 14 13  1  0  0  0  0
 16 15  1  0  0  0  0
 17 18  1  0  0  0  0
 19 20  1  0  0  0  0
 20 18  1  0  0  0  0
M  END
>  <MODEL>
3

>  <REMARK>
 VINA RESULT:      -3.2      3.857      8.302
  Name = bg33_1_ligand
  12 active torsions:
  status: ('A' for Active; 'I' for Inactive)
    1  A    between atoms: C_1  and  C_2
    2  A    between atoms: C_2  and  C_3
    3  A    between atoms: C_3  and  C_4
    4  A    between atoms: C_4  and  C_5
    5  A    between atoms: C_5  and  C_6
    6  A    between atoms: C_5  and  O_8
    7  A    between atoms: C_6  and  C_7
    8  A    between atoms: O_8  and  C_9
    9  A    between atoms: C_9  and  C_11
   10  A    between atoms: C_12  and  C_13
   11  A    between atoms: C_16  and  O_17
   12  A    between atoms: O_17  and  C_18
                            x       y       z     vdW  Elec       q    Type
                         _______ _______ _______ _____ _____    ______ ____

>  <TORSDO>
F 9

$$$$
bg33_1_ligand
 OpenBabel10092621133D

 20 20  0  0  1  0  0  0  0  0999 V2000
   -0.5640   -0.6320   -7.4190 C   0  0  0  0  0  0  0  0  0  0  0  0
    0.0800   -0.9420   -8.3860 O   0  0  0  0  0  0  0  0  0  0  0  0
   -0.0060   -0.6860   -6.1270 C   0  0  0  0  0  3  0  0  0  0  0  0
    1.2480   -0.6690   -6.0280 C   0  0  0  0  0  3  0  0  0  0  0  0
    1.9400   -0.8690   -4.8530 C   0  0  0  0  0  0  0  0  0  0  0  0
    2.0900    0.1130   -3.9520 C   0  0  0  0  0  3  0  0  0  0  0  0
    2.7680   -0.0660   -2.7920 C   0  0  0  0  0  3  0  0  0  0  0  0
    3.2690   -1.3110   -2.5500 C   0  0  0  0  0  0  0  0  0  0  0  0
    3.1380   -2.3130   -3.3960 C   0  0  0  0  0  3  0  0  0  0  0  0
    2.4950   -2.0850   -4.5630 C   0  0  0  0  0  3  0  0  0  0  0  0
    3.9450   -1.5540   -1.4530 O   0  0  0  0  0  0  0  0  0  0  0  0
    5.0990   -2.2940   -1.6570 C   0  0  0  0  0  1  0  0  0  0  0  0
   -1.7840   -0.2380   -7.5560 O   0  0  0  0  0  0  0  0  0  0  0  0
   -1.9060    0.6520   -8.4420 C   0  0  1  0  0  3  0  0  0  0  0  0
   -2.8630    0.2520   -9.5130 C   0  0  0  0  0  2  0  0  0  0  0  0
   -4.1530   -0.0590   -9.0300 C   0  0  0  0  0  1  0  0  0  0  0  0
   -1.9510    1.9730   -7.9710 C   0  0  0  0  0  2  0  0  0  0  0  0
   -1.0660    2.8520   -8.6470 C   0  0  0  0  0  2  0  0  0  0  0  0
    1.0330    2.8250   -7.4290 C   0  0  0  0  0  1  0  0  0  0  0  0
   -0.3310    3.4630   -7.5580 C   0  0  0  0  0  2  0  0  0  0  0  0
  1  3  1  0  0  0  0
  2  1  2  0  0  0  0
  3  4  2  0  0  0  0
  4  5  1  0  0  0  0
  5 10  2  0  0  0  0
  5  6  1  0  0  0  0
  6  7  2  0  0  0  0
  7  8  1  0  0  0  0
  8 11  1  0  0  0  0
  9  8  2  0  0  0  0
 10  9  1  0  0  0  0
 12 11  1  0  0  0  0
 13  1  1  0  0  0  0
 14 15  1  1  0  0  0
 14 17  1  0  0  0  0
 14 13  1  0  0  0  0
 15 16  1  0  0  0  0
 18 17  1  0  0  0  0
 18 20  1  0  0  0  0
 20 19  1  0  0  0  0
M  END
>  <MODEL>
4

>  <REMARK>
 VINA RESULT:      -3.1     14.855     17.279
  Name = bg33_1_ligand
  12 active torsions:
  status: ('A' for Active; 'I' for Inactive)
    1  A    between atoms: C_1  and  C_2
    2  A    between atoms: C_2  and  C_3
    3  A    between atoms: C_3  and  C_4
    4  A    between atoms: C_4  and  C_5
    5  A    between atoms: C_5  and  C_6
    6  A    between atoms: C_5  and  O_8
    7  A    between atoms: C_6  and  C_7
    8  A    between atoms: O_8  and  C_9
    9  A    between atoms: C_9  and  C_11
   10  A    between atoms: C_12  and  C_13
   11  A    between atoms: C_16  and  O_17
   12  A    between atoms: O_17  and  C_18
                            x       y       z     vdW  Elec       q    Type
                         _______ _______ _______ _____ _____    ______ ____

>  <TORSDO>
F 9

$$$$
bg33_1_ligand
 OpenBabel10092621133D

 20 20  0  0  1  0  0  0  0  0999 V2000
    0.5960   -5.5740    8.8120 C   0  0  0  0  0  0  0  0  0  0  0  0
    1.6260   -6.0150    8.3730 O   0  0  0  0  0  0  0  0  0  0  0  0
    0.3880   -4.1850    8.9150 C   0  0  0  0  0  3  0  0  0  0  0  0
    0.0620   -3.5610    7.8730 C   0  0  0  0  0  3  0  0  0  0  0  0
   -0.0260   -2.1880    7.7820 C   0  0  0  0  0  0  0  0  0  0  0  0
    0.8850   -1.4710    7.1090 C   0  0  0  0  0  3  0  0  0  0  0  0
    0.8150   -0.1210    7.0110 C   0  0  0  0  0  3  0  0  0  0  0  0
   -0.2530    0.4910    7.5990 C   0  0  0  0  0  0  0  0  0  0  0  0
   -1.1820   -0.1690    8.2600 C   0  0  0  0  0  3  0  0  0  0  0  0
   -1.0550   -1.5100    8.3750 C   0  0  0  0  0  3  0  0  0  0  0  0
   -0.3800    1.7950    7.5520 O   0  0  0  0  0  0  0  0  0  0  0  0
    0.4540    2.4070    6.6280 C   0  0  0  0  0  1  0  0  0  0  0  0
   -0.3390   -6.3760    9.1910 O   0  0  0  0  0  0  0  0  0  0  0  0
   -0.6650   -7.1960    8.2890 C   0  0  1  0  0  3  0  0  0  0  0  0
   -0.6770   -8.6020    8.7850 C   0  0  0  0  0  2  0  0  0  0  0  0
    0.4510   -9.3520    8.3850 C   0  0  0  0  0  1  0  0  0  0  0  0
   -1.7040   -6.7830    7.4410 C   0  0  0  0  0  2  0  0  0  0  0  0
   -2.9970   -6.9450    8.0000 C   0  0  0  0  0  2  0  0  0  0  0  0
   -3.4010   -4.6290    8.6040 C   0  0  0  0  0  1  0  0  0  0  0  0
   -3.6710   -5.7260    7.5990 C   0  0  0  0  0  2  0  0  0  0  0  0
  1  3  1  0  0  0  0
  1 13  1  0  0  0  0
  2  1  2  0  0  0  0
  4  3  2  0  0  0  0
  5  4  1  0  0  0  0
  5 10  1  0  0  0  0
  6  5  2  0  0  0  0
  7  6  1  0  0  0  0
  7  8  2  0  0  0  0
  8  9  1  0  0  0  0
  9 10  2  0  0  0  0
 11  8  1  0  0  0  0
 12 11  1  0  0  0  0
 14 17  1  1  0  0  0
 14 15  1  0  0  0  0
 14 13  1  0  0  0  0
 16 15  1  0  0  0  0
 17 18  1  0  0  0  0
 20 18  1  0  0  0  0
 20 19  1  0  0  0  0
M  END
>  <MODEL>
5

>  <REMARK>
 VINA RESULT:      -3.1      2.577      8.171
  Name = bg33_1_ligand
  12 active torsions:
  status: ('A' for Active; 'I' for Inactive)
    1  A    between atoms: C_1  and  C_2
    2  A    between atoms: C_2  and  C_3
    3  A    between atoms: C_3  and  C_4
    4  A    between atoms: C_4  and  C_5
    5  A    between atoms: C_5  and  C_6
    6  A    between atoms: C_5  and  O_8
    7  A    between atoms: C_6  and  C_7
    8  A    between atoms: O_8  and  C_9
    9  A    between atoms: C_9  and  C_11
   10  A    between atoms: C_12  and  C_13
   11  A    between atoms: C_16  and  O_17
   12  A    between atoms: O_17  and  C_18
                            x       y       z     vdW  Elec       q    Type
                         _______ _______ _______ _____ _____    ______ ____

>  <TORSDO>
F 9

$$$$
bg33_1_ligand
 OpenBabel10092621133D

 20 20  0  0  1  0  0  0  0  0999 V2000
   -5.5680   -3.7590    3.0140 C   0  0  0  0  0  0  0  0  0  0  0  0
   -6.7320   -3.8990    2.7450 O   0  0  0  0  0  0  0  0  0  0  0  0
   -4.6640   -4.8340    2.9080 C   0  0  0  0  0  3  0  0  0  0  0  0
   -4.9070   -5.8730    3.5730 C   0  0  0  0  0  3  0  0  0  0  0  0
   -4.0450   -6.9420    3.6930 C   0  0  0  0  0  0  0  0  0  0  0  0
   -3.0570   -6.9460    4.6000 C   0  0  0  0  0  3  0  0  0  0  0  0
   -2.1990   -7.9880    4.7300 C   0  0  0  0  0  3  0  0  0  0  0  0
   -2.4010   -9.0660    3.9190 C   0  0  0  0  0  0  0  0  0  0  0  0
   -3.3640   -9.1160    3.0210 C   0  0  0  0  0  3  0  0  0  0  0  0
   -4.1730   -8.0410    2.8890 C   0  0  0  0  0  3  0  0  0  0  0  0
   -1.6040  -10.1040    3.9830 O   0  0  0  0  0  0  0  0  0  0  0  0
   -0.5370  -10.0480    3.0990 C   0  0  0  0  0  1  0  0  0  0  0  0
   -5.1290   -2.6100    3.4000 O   0  0  0  0  0  0  0  0  0  0  0  0
   -5.9170   -2.0390    4.2040 C   0  0  1  0  0  3  0  0  0  0  0  0
   -5.7070   -2.4870    5.6100 C   0  0  0  0  0  2  0  0  0  0  0  0
   -5.3590   -1.4390    6.4910 C   0  0  0  0  0  1  0  0  0  0  0  0
   -6.1380   -0.6730    3.9680 C   0  0  0  0  0  2  0  0  0  0  0  0
   -5.3090   -0.1260    2.9560 C   0  0  0  0  0  2  0  0  0  0  0  0
   -4.5760    1.8760    4.1170 C   0  0  0  0  0  1  0  0  0  0  0  0
   -5.5320    1.2990    3.0980 C   0  0  0  0  0  2  0  0  0  0  0  0
  1 13  1  0  0  0  0
  2  1  2  0  0  0  0
  3  1  1  0  0  0  0
  3  4  2  0  0  0  0
  4  5  1  0  0  0  0
  5  6  1  0  0  0  0
  6  7  2  0  0  0  0
  8 11  1  0  0  0  0
  8  7  1  0  0  0  0
  9  8  2  0  0  0  0
 10  9  1  0  0  0  0
 10  5  2  0  0  0  0
 12 11  1  0  0  0  0
 13 14  1  0  0  0  0
 14 17  1  1  0  0  0
 14 15  1  0  0  0  0
 15 16  1  0  0  0  0
 18 20  1  0  0  0  0
 18 17  1  0  0  0  0
 20 19  1  0  0  0  0
M  END
>  <MODEL>
6

>  <REMARK>
 VINA RESULT:      -3.1      6.157      8.248
  Name = bg33_1_ligand
  12 active torsions:
  status: ('A' for Active; 'I' for Inactive)
    1  A    between atoms: C_1  and  C_2
    2  A    between atoms: C_2  and  C_3
    3  A    between atoms: C_3  and  C_4
    4  A    between atoms: C_4  and  C_5
    5  A    between atoms: C_5  and  C_6
    6  A    between atoms: C_5  and  O_8
    7  A    between atoms: C_6  and  C_7
    8  A    between atoms: O_8  and  C_9
    9  A    between atoms: C_9  and  C_11
   10  A    between atoms: C_12  and  C_13
   11  A    between atoms: C_16  and  O_17
   12  A    between atoms: O_17  and  C_18
                            x       y       z     vdW  Elec       q    Type
                         _______ _______ _______ _____ _____    ______ ____

>  <TORSDO>
F 9

$$$$
bg33_1_ligand
 OpenBabel10092621133D

 20 20  0  0  1  0  0  0  0  0999 V2000
   -3.3350   -5.8240   -3.0240 C   0  0  0  0  0  0  0  0  0  0  0  0
   -4.0750   -6.6270   -3.5290 O   0  0  0  0  0  0  0  0  0  0  0  0
   -2.2190   -6.2380   -2.2720 C   0  0  0  0  0  3  0  0  0  0  0  0
   -1.2000   -6.6280   -2.8970 C   0  0  0  0  0  3  0  0  0  0  0  0
   -0.0960   -7.2040   -2.3060 C   0  0  0  0  0  0  0  0  0  0  0  0
    1.0910   -6.5800   -2.2830 C   0  0  0  0  0  3  0  0  0  0  0  0
    2.1880   -7.1320   -1.7070 C   0  0  0  0  0  3  0  0  0  0  0  0
    2.0310   -8.3490   -1.1100 C   0  0  0  0  0  0  0  0  0  0  0  0
    0.8840   -8.9970   -1.0940 C   0  0  0  0  0  3  0  0  0  0  0  0
   -0.1770   -8.4350   -1.7170 C   0  0  0  0  0  3  0  0  0  0  0  0
    3.0510   -8.9460   -0.5430 O   0  0  0  0  0  0  0  0  0  0  0  0
    4.2810   -8.5610   -1.0530 C   0  0  0  0  0  1  0  0  0  0  0  0
   -3.5550   -4.5620   -3.1740 O   0  0  0  0  0  0  0  0  0  0  0  0
   -3.9810   -4.2810   -4.3270 C   0  0  1  0  0  3  0  0  0  0  0  0
   -5.1750   -3.3890   -4.2830 C   0  0  0  0  0  2  0  0  0  0  0  0
   -6.3900   -4.0800   -4.0840 C   0  0  0  0  0  1  0  0  0  0  0  0
   -2.9960   -4.0240   -5.2920 C   0  0  0  0  0  2  0  0  0  0  0  0
   -3.2060   -4.7010   -6.5200 C   0  0  0  0  0  2  0  0  0  0  0  0
   -0.8170   -4.9450   -6.1650 C   0  0  0  0  0  1  0  0  0  0  0  0
   -2.1020   -5.6390   -6.5590 C   0  0  0  0  0  2  0  0  0  0  0  0
  1  3  1  0  0  0  0
  2  1  2  0  0  0  0
  4  5  1  0  0  0  0
  4  3  2  0  0  0  0
  5  6  2  0  0  0  0
  5 10  1  0  0  0  0
  6  7  1  0  0  0  0
  7  8  2  0  0  0  0
  8  9  1  0  0  0  0
  8 11  1  0  0  0  0
 10  9  2  0  0  0  0
 12 11  1  0  0  0  0
 13  1  1  0  0  0  0
 14 17  1  6  0  0  0
 14 15  1  0  0  0  0
 14 13  1  0  0  0  0
 15 16  1  0  0  0  0
 18 17  1  0  0  0  0
 20 18  1  0  0  0  0
 20 19  1  0  0  0  0
M  END
>  <MODEL>
7

>  <REMARK>
 VINA RESULT:      -3.0     11.024     12.720
  Name = bg33_1_ligand
  12 active torsions:
  status: ('A' for Active; 'I' for Inactive)
    1  A    between atoms: C_1  and  C_2
    2  A    between atoms: C_2  and  C_3
    3  A    between atoms: C_3  and  C_4
    4  A    between atoms: C_4  and  C_5
    5  A    between atoms: C_5  and  C_6
    6  A    between atoms: C_5  and  O_8
    7  A    between atoms: C_6  and  C_7
    8  A    between atoms: O_8  and  C_9
    9  A    between atoms: C_9  and  C_11
   10  A    between atoms: C_12  and  C_13
   11  A    between atoms: C_16  and  O_17
   12  A    between atoms: O_17  and  C_18
                            x       y       z     vdW  Elec       q    Type
                         _______ _______ _______ _____ _____    ______ ____

>  <TORSDO>
F 9

$$$$
bg33_1_ligand
 OpenBabel10092621133D

 20 20  0  0  1  0  0  0  0  0999 V2000
   -0.4190   -6.1120    8.3150 C   0  0  0  0  0  0  0  0  0  0  0  0
   -1.1070   -6.7270    7.5440 O   0  0  0  0  0  0  0  0  0  0  0  0
    0.0020   -4.8000    8.0250 C   0  0  0  0  0  3  0  0  0  0  0  0
   -0.6550   -3.8480    8.5190 C   0  0  0  0  0  3  0  0  0  0  0  0
   -0.4600   -2.5210    8.2050 C   0  0  0  0  0  0  0  0  0  0  0  0
   -1.3090   -1.5700    8.6230 C   0  0  0  0  0  3  0  0  0  0  0  0
   -1.1330   -0.2600    8.3220 C   0  0  0  0  0  3  0  0  0  0  0  0
   -0.0250    0.0690    7.5980 C   0  0  0  0  0  0  0  0  0  0  0  0
    0.8450   -0.8250    7.1740 C   0  0  0  0  0  3  0  0  0  0  0  0
    0.6140   -2.1270    7.4550 C   0  0  0  0  0  3  0  0  0  0  0  0
    0.2030    1.3160    7.2610 O   0  0  0  0  0  0  0  0  0  0  0  0
   -0.0220    2.2220    8.2860 C   0  0  0  0  0  1  0  0  0  0  0  0
   -0.0620   -6.6510    9.4310 O   0  0  0  0  0  0  0  0  0  0  0  0
    1.1060   -7.1260    9.3840 C   0  0  1  0  0  3  0  0  0  0  0  0
    1.9410   -6.6790   10.5350 C   0  0  0  0  0  2  0  0  0  0  0  0
    2.9210   -5.7240   10.1860 C   0  0  0  0  0  1  0  0  0  0  0  0
    1.1990   -8.4650    8.9760 C   0  0  0  0  0  2  0  0  0  0  0  0
    0.8660   -9.3970    9.9920 C   0  0  0  0  0  2  0  0  0  0  0  0
    1.2360  -11.5080    8.8530 C   0  0  0  0  0  1  0  0  0  0  0  0
    1.8230  -10.4620    9.7730 C   0  0  0  0  0  2  0  0  0  0  0  0
  1 13  1  0  0  0  0
  2  1  2  0  0  0  0
  3  1  1  0  0  0  0
  3  4  2  0  0  0  0
  5  4  1  0  0  0  0
  5  6  1  0  0  0  0
  7  6  2  0  0  0  0
  8  7  1  0  0  0  0
  9 10  1  0  0  0  0
  9  8  2  0  0  0  0
 10  5  2  0  0  0  0
 11  8  1  0  0  0  0
 11 12  1  0  0  0  0
 14 17  1  1  0  0  0
 14 13  1  0  0  0  0
 14 15  1  0  0  0  0
 16 15  1  0  0  0  0
 17 18  1  0  0  0  0
 19 20  1  0  0  0  0
 20 18  1  0  0  0  0
M  END
>  <MODEL>
8

>  <REMARK>
 VINA RESULT:      -3.0      2.403      8.146
  Name = bg33_1_ligand
  12 active torsions:
  status: ('A' for Active; 'I' for Inactive)
    1  A    between atoms: C_1  and  C_2
    2  A    between atoms: C_2  and  C_3
    3  A    between atoms: C_3  and  C_4
    4  A    between atoms: C_4  and  C_5
    5  A    between atoms: C_5  and  C_6
    6  A    between atoms: C_5  and  O_8
    7  A    between atoms: C_6  and  C_7
    8  A    between atoms: O_8  and  C_9
    9  A    between atoms: C_9  and  C_11
   10  A    between atoms: C_12  and  C_13
   11  A    between atoms: C_16  and  O_17
   12  A    between atoms: O_17  and  C_18
                            x       y       z     vdW  Elec       q    Type
                         _______ _______ _______ _____ _____    ______ ____

>  <TORSDO>
F 9

$$$$
bg33_1_ligand
 OpenBabel10092621133D

 20 20  0  0  1  0  0  0  0  0999 V2000
    6.3180   -1.8700    2.1040 C   0  0  0  0  0  0  0  0  0  0  0  0
    7.2840   -1.1580    2.1800 O   0  0  0  0  0  0  0  0  0  0  0  0
    5.3000   -1.6140    1.1650 C   0  0  0  0  0  3  0  0  0  0  0  0
    5.6200   -1.5600   -0.0500 C   0  0  0  0  0  3  0  0  0  0  0  0
    4.7730   -1.1700   -1.0630 C   0  0  0  0  0  0  0  0  0  0  0  0
    3.9590   -2.0440   -1.6730 C   0  0  0  0  0  3  0  0  0  0  0  0
    3.1200   -1.6770   -2.6730 C   0  0  0  0  0  3  0  0  0  0  0  0
    3.1030   -0.3580   -3.0180 C   0  0  0  0  0  0  0  0  0  0  0  0
    3.8720    0.5430   -2.4410 C   0  0  0  0  0  3  0  0  0  0  0  0
    4.7290    0.1330   -1.4790 C   0  0  0  0  0  3  0  0  0  0  0  0
    2.3240    0.0660   -3.9830 O   0  0  0  0  0  0  0  0  0  0  0  0
    1.9770   -0.9170   -4.8970 C   0  0  0  0  0  1  0  0  0  0  0  0
    6.2050   -2.8900    2.8850 O   0  0  0  0  0  0  0  0  0  0  0  0
    7.2930   -3.5130    3.0240 C   0  0  1  0  0  3  0  0  0  0  0  0
    7.5800   -3.8330    4.4510 C   0  0  0  0  0  2  0  0  0  0  0  0
    7.9330   -2.7040    5.2230 C   0  0  0  0  0  1  0  0  0  0  0  0
    7.5550   -4.4960    2.0570 C   0  0  0  0  0  2  0  0  0  0  0  0
    8.9000   -4.5110    1.6070 C   0  0  0  0  0  2  0  0  0  0  0  0
    7.7500   -4.5800   -0.5300 C   0  0  0  0  0  1  0  0  0  0  0  0
    8.8050   -3.8870    0.3020 C   0  0  0  0  0  2  0  0  0  0  0  0
  1  2  2  0  0  0  0
  1 13  1  0  0  0  0
  3  1  1  0  0  0  0
  4  3  2  0  0  0  0
  5  4  1  0  0  0  0
  6  5  2  0  0  0  0
  7  6  1  0  0  0  0
  8  7  2  0  0  0  0
  8  9  1  0  0  0  0
  9 10  2  0  0  0  0
 10  5  1  0  0  0  0
 11  8  1  0  0  0  0
 12 11  1  0  0  0  0
 13 14  1  0  0  0  0
 14 17  1  6  0  0  0
 14 15  1  0  0  0  0
 15 16  1  0  0  0  0
 18 17  1  0  0  0  0
 19 20  1  0  0  0  0
 20 18  1  0  0  0  0
M  END
>  <MODEL>
9

>  <REMARK>
 VINA RESULT:      -3.0     10.380     13.195
  Name = bg33_1_ligand
  12 active torsions:
  status: ('A' for Active; 'I' for Inactive)
    1  A    between atoms: C_1  and  C_2
    2  A    between atoms: C_2  and  C_3
    3  A    between atoms: C_3  and  C_4
    4  A    between atoms: C_4  and  C_5
    5  A    between atoms: C_5  and  C_6
    6  A    between atoms: C_5  and  O_8
    7  A    between atoms: C_6  and  C_7
    8  A    between atoms: O_8  and  C_9
    9  A    between atoms: C_9  and  C_11
   10  A    between atoms: C_12  and  C_13
   11  A    between atoms: C_16  and  O_17
   12  A    between atoms: O_17  and  C_18
                            x       y       z     vdW  Elec       q    Type
                         _______ _______ _______ _____ _____    ______ ____

>  <TORSDO>
F 9

$$$$
