shuffle_control_ligand
 OpenBabel10092621103D

 20 20  0  0  1  0  0  0  0  0999 V2000
   -2.2020   -0.1040    7.7410 C   0  0  0  0  0  0  0  0  0  0  0  0
   -1.8580   -0.6180    8.7710 O   0  0  0  0  0  0  0  0  0  0  0  0
   -3.5890    0.3250    7.4410 C   0  0  0  0  0  3  0  0  0  0  0  0
   -4.2040    1.2310    8.2060 C   0  0  0  0  0  3  0  0  0  0  0  0
   -5.5970    1.6900    7.9890 C   0  0  0  0  0  0  0  0  0  0  0  0
   -6.5570    0.8880    7.4280 C   0  0  0  0  0  3  0  0  0  0  0  0
   -7.8530    1.3590    7.2440 C   0  0  0  0  0  3  0  0  0  0  0  0
   -8.1900    2.6320    7.6190 C   0  0  0  0  0  0  0  0  0  0  0  0
   -7.2320    3.4410    8.1790 C   0  0  0  0  0  3  0  0  0  0  0  0
   -5.9350    2.9730    8.3620 C   0  0  0  0  0  3  0  0  0  0  0  0
   -9.4440    3.1500    7.4710 O   0  0  0  0  0  0  0  0  0  0  0  0
   -9.6240    4.5490    7.3620 C   0  0  0  0  0  1  0  0  0  0  0  0
   -1.3370    0.1290    6.7480 O   0  0  0  0  0  0  0  0  0  0  0  0
   -1.7150   -0.0910    5.4050 C   0  0  1  0  0  3  0  0  0  0  0  0
   -1.1800    1.0260    4.5240 C   0  0  0  0  0  2  0  0  0  0  0  0
   -0.3660    2.0540    5.2330 C   0  0  0  0  0  1  0  0  0  0  0  0
   -1.1230   -1.4060    4.9490 C   0  0  0  0  0  2  0  0  0  0  0  0
    0.0810   -1.2570    4.0760 C   0  0  0  0  0  2  0  0  0  0  0  0
    2.4450   -0.5400    4.4230 C   0  0  0  0  0  1  0  0  0  0  0  0
    1.3630   -1.5000    4.8290 C   0  0  0  0  0  2  0  0  0  0  0  0
  1  2  2  0  0  0  0
  3  1  1  0  0  0  0
  3  4  2  0  0  0  0
  5  4  1  0  0  0  0
  5 10  1  0  0  0  0
  6  5  2  0  0  0  0
  7  6  1  0  0  0  0
  7  8  2  0  0  0  0
  8  9  1  0  0  0  0
  9 10  2  0  0  0  0
 11  8  1  0  0  0  0
 12 11  1  0  0  0  0
 13  1  1  0  0  0  0
 14 15  1  6  0  0  0
 14 13  1  0  0  0  0
 15 16  1  0  0  0  0
 17 14  1  0  0  0  0
 18 20  1  0  0  0  0
 18 17  1  0  0  0  0
 19 20  1  0  0  0  0
M  END
>  <MODEL>
1

>  <REMARK>
 VINA RESULT:      -4.6      0.000      0.000
  Name = shuffle_control_ligand
  12 active torsions:
  status: ('A' for Active; 'I' for Inactive)
    1  A    between atoms: C_1  and  C_2
    2  A    between atoms: C_2  and  C_3
    3  A    between atoms: C_3  and  C_4
    4  A    between atoms: C_4  and  C_5
    5  A    between atoms: C_5  and  C_6
    6  A    between atoms: C_5  and  O_8
    7  A    between atoms: C_6  and  C_7
    8  A    between atoms: O_8  and  C_9
    9  A    between atoms: C_9  and  C_11
   10  A    between atoms: C_12  and  C_13
   11  A    between atoms: C_16  and  O_17
   12  A    between atoms: O_17  and  C_18
                            x       y       z     vdW  Elec       q    Type
                         _______ _______ _______ _____ _____    ______ ____

>  <TORSDO>
F 9

$$$$
shuffle_control_ligand
 OpenBabel10092621103D

 20 20  0  0  1  0  0  0  0  0999 V2000
   -0.7730    2.1230    4.8280 C   0  0  0  0  0  0  0  0  0  0  0  0
   -1.1940    2.6620    3.8410 O   0  0  0  0  0  0  0  0  0  0  0  0
   -1.1350    0.7490    5.2510 C   0  0  0  0  0  3  0  0  0  0  0  0
   -0.6980   -0.3140    4.5690 C   0  0  0  0  0  3  0  0  0  0  0  0
   -1.0390   -1.7150    4.9110 C   0  0  0  0  0  0  0  0  0  0  0  0
   -0.3980   -2.7880    4.3450 C   0  0  0  0  0  3  0  0  0  0  0  0
   -0.7500   -4.0870    4.6970 C   0  0  0  0  0  3  0  0  0  0  0  0
   -1.7420   -4.3160    5.6130 C   0  0  0  0  0  0  0  0  0  0  0  0
   -2.3880   -3.2460    6.1810 C   0  0  0  0  0  3  0  0  0  0  0  0
   -2.0410   -1.9460    5.8290 C   0  0  0  0  0  3  0  0  0  0  0  0
   -2.1270   -5.5650    6.0040 O   0  0  0  0  0  0  0  0  0  0  0  0
   -3.4520   -5.7920    6.4450 C   0  0  0  0  0  1  0  0  0  0  0  0
    0.0810    2.7350    5.6550 O   0  0  0  0  0  0  0  0  0  0  0  0
    1.4230    2.9450    5.2670 C   0  0  1  0  0  3  0  0  0  0  0  0
    1.9270    4.2640    5.8310 C   0  0  0  0  0  2  0  0  0  0  0  0
    0.8930    5.0980    6.5050 C   0  0  0  0  0  1  0  0  0  0  0  0
    2.2650    1.8180    5.8220 C   0  0  0  0  0  2  0  0  0  0  0  0
    3.3260    1.3370    4.8860 C   0  0  0  0  0  2  0  0  0  0  0  0
    2.8690   -1.0910    5.2310 C   0  0  0  0  0  1  0  0  0  0  0  0
    2.9580    0.0300    4.2330 C   0  0  0  0  0  2  0  0  0  0  0  0
  1  3  1  0  0  0  0
  1 13  1  0  0  0  0
  2  1  2  0  0  0  0
  4  5  1  0  0  0  0
  4  3  2  0  0  0  0
  5 10  1  0  0  0  0
  6  7  1  0  0  0  0
  6  5  2  0  0  0  0
  7  8  2  0  0  0  0
  8 11  1  0  0  0  0
  8  9  1  0  0  0  0
 10  9  2  0  0  0  0
 11 12  1  0  0  0  0
 14 13  1  0  0  0  0
 14 17  1  1  0  0  0
 14 15  1  0  0  0  0
 15 16  1  0  0  0  0
 18 17  1  0  0  0  0
 20 18  1  0  0  0  0
 20 19  1  0  0  0  0
M  END
>  <MODEL>
2

>  <REMARK>
 VINA RESULT:      -4.4      5.025      6.629
  Name = shuffle_control_ligand
  12 active torsions:
  status: ('A' for Active; 'I' for Inactive)
    1  A    between atoms: C_1  and  C_2
    2  A    between atoms: C_2  and  C_3
    3  A    between atoms: C_3  and  C_4
    4  A    between atoms: C_4  and  C_5
    5  A    between atoms: C_5  and  C_6
    6  A    between atoms: C_5  and  O_8
    7  A    between atoms: C_6  and  C_7
    8  A    between atoms: O_8  and  C_9
    9  A    between atoms: C_9  and  C_11
   10  A    between atoms: C_12  and  C_13
   11  A    between atoms: C_16  and  O_17
   12  A    between atoms: O_17  and  C_18
                            x       y       z     vdW  Elec       q    Type
                         _______ _______ _______ _____ _____    ______ ____

>  <TORSDO>
F 9

$$$$
shuffle_control_ligand
 OpenBabel10092621103D

 20 20  0  0  1  0  0  0  0  0999 V2000
   -0.9220    1.0170    5.2930 C   0  0  0  0  0  0  0  0  0  0  0  0
   -0.7090    2.1080    4.8390 O   0  0  0  0  0  0  0  0  0  0  0  0
   -2.2660    0.5110    5.6620 C   0  0  0  0  0  3  0  0  0  0  0  0
   -2.5470    0.1740    6.9230 C   0  0  0  0  0  3  0  0  0  0  0  0
   -3.8550   -0.3650    7.3650 C   0  0  0  0  0  0  0  0  0  0  0  0
   -4.0460   -1.6920    7.6510 C   0  0  0  0  0  3  0  0  0  0  0  0
   -5.2910   -2.1550    8.0640 C   0  0  0  0  0  3  0  0  0  0  0  0
   -6.3470   -1.2910    8.1910 C   0  0  0  0  0  0  0  0  0  0  0  0
   -6.1620    0.0380    7.9030 C   0  0  0  0  0  3  0  0  0  0  0  0
   -4.9190    0.5030    7.4880 C   0  0  0  0  0  3  0  0  0  0  0  0
   -7.5890   -1.6820    8.5970 O   0  0  0  0  0  0  0  0  0  0  0  0
   -8.2940   -0.9160    9.5550 C   0  0  0  0  0  1  0  0  0  0  0  0
    0.0650    0.1410    5.5120 O   0  0  0  0  0  0  0  0  0  0  0  0
    0.7510   -0.4470    4.4260 C   0  0  1  0  0  3  0  0  0  0  0  0
    2.1200   -0.9320    4.8780 C   0  0  0  0  0  2  0  0  0  0  0  0
    3.2680   -0.1080    4.4080 C   0  0  0  0  0  1  0  0  0  0  0  0
   -0.0530   -1.6300    3.9340 C   0  0  0  0  0  2  0  0  0  0  0  0
   -0.0350   -2.8020    4.8600 C   0  0  0  0  0  2  0  0  0  0  0  0
   -1.3410   -3.8920    6.6830 C   0  0  0  0  0  1  0  0  0  0  0  0
   -1.4060   -3.1280    5.3910 C   0  0  0  0  0  2  0  0  0  0  0  0
  1 13  1  0  0  0  0
  1  3  1  0  0  0  0
  2  1  2  0  0  0  0
  3  4  2  0  0  0  0
  4  5  1  0  0  0  0
  5 10  2  0  0  0  0
  5  6  1  0  0  0  0
  6  7  2  0  0  0  0
  7  8  1  0  0  0  0
  8 11  1  0  0  0  0
  9  8  2  0  0  0  0
 10  9  1  0  0  0  0
 11 12  1  0  0  0  0
 14 17  1  1  0  0  0
 14 15  1  0  0  0  0
 14 13  1  0  0  0  0
 16 15  1  0  0  0  0
 17 18  1  0  0  0  0
 18 20  1  0  0  0  0
 20 19  1  0  0  0  0
M  END
>  <MODEL>
3

>  <REMARK>
 VINA RESULT:      -4.4      2.534      3.733
  Name = shuffle_control_ligand
  12 active torsions:
  status: ('A' for Active; 'I' for Inactive)
    1  A    between atoms: C_1  and  C_2
    2  A    between atoms: C_2  and  C_3
    3  A    between atoms: C_3  and  C_4
    4  A    between atoms: C_4  and  C_5
    5  A    between atoms: C_5  and  C_6
    6  A    between atoms: C_5  and  O_8
    7  A    between atoms: C_6  and  C_7
    8  A    between atoms: O_8  and  C_9
    9  A    between atoms: C_9  and  C_11
   10  A    between atoms: C_12  and  C_13
   11  A    between atoms: C_16  and  O_17
   12  A    between atoms: O_17  and  C_18
                            x       y       z     vdW  Elec       q    Type
                         _______ _______ _______ _____ _____    ______ ____

>  <TORSDO>
F 9

$$$$
shuffle_control_ligand
 OpenBabel10092621103D

 20 20  0  0  1  0  0  0  0  0999 V2000
   -5.0670    1.6220    8.6320 C   0  0  0  0  0  0  0  0  0  0  0  0
   -5.1700    1.3290    9.7920 O   0  0  0  0  0  0  0  0  0  0  0  0
   -3.8910    1.3010    7.7890 C   0  0  0  0  0  3  0  0  0  0  0  0
   -3.8500    0.1750    7.0720 C   0  0  0  0  0  3  0  0  0  0  0  0
   -2.7000   -0.2290    6.2280 C   0  0  0  0  0  0  0  0  0  0  0  0
   -2.3790   -1.5430    6.0020 C   0  0  0  0  0  3  0  0  0  0  0  0
   -1.2920   -1.8770    5.2010 C   0  0  0  0  0  3  0  0  0  0  0  0
   -0.5240   -0.8990    4.6270 C   0  0  0  0  0  0  0  0  0  0  0  0
   -0.8400    0.4190    4.8520 C   0  0  0  0  0  3  0  0  0  0  0  0
   -1.9250    0.7550    5.6530 C   0  0  0  0  0  3  0  0  0  0  0  0
    0.5500   -1.1620    3.8280 O   0  0  0  0  0  0  0  0  0  0  0  0
    1.8540   -0.8280    4.2620 C   0  0  0  0  0  1  0  0  0  0  0  0
   -6.0330    2.2820    7.9850 O   0  0  0  0  0  0  0  0  0  0  0  0
   -7.3800    1.8730    8.1030 C   0  0  1  0  0  3  0  0  0  0  0  0
   -8.3050    3.0000    7.6720 C   0  0  0  0  0  2  0  0  0  0  0  0
   -7.9760    4.3380    8.2390 C   0  0  0  0  0  1  0  0  0  0  0  0
   -7.6010    0.6820    7.1980 C   0  0  0  0  0  2  0  0  0  0  0  0
   -8.8510    0.7630    6.3840 C   0  0  0  0  0  2  0  0  0  0  0  0
   -9.4720   -0.7300    4.4840 C   0  0  0  0  0  1  0  0  0  0  0  0
   -9.3540   -0.5980    5.9760 C   0  0  0  0  0  2  0  0  0  0  0  0
  1  2  2  0  0  0  0
  3  1  1  0  0  0  0
  4  3  2  0  0  0  0
  5  4  1  0  0  0  0
  6  5  1  0  0  0  0
  7  6  2  0  0  0  0
  8  9  2  0  0  0  0
  8  7  1  0  0  0  0
  9 10  1  0  0  0  0
 10  5  2  0  0  0  0
 11 12  1  0  0  0  0
 11  8  1  0  0  0  0
 13 14  1  0  0  0  0
 13  1  1  0  0  0  0
 14 17  1  6  0  0  0
 15 14  1  0  0  0  0
 15 16  1  0  0  0  0
 18 17  1  0  0  0  0
 19 20  1  0  0  0  0
 20 18  1  0  0  0  0
M  END
>  <MODEL>
4

>  <REMARK>
 VINA RESULT:      -4.4      1.979      7.775
  Name = shuffle_control_ligand
  12 active torsions:
  status: ('A' for Active; 'I' for Inactive)
    1  A    between atoms: C_1  and  C_2
    2  A    between atoms: C_2  and  C_3
    3  A    between atoms: C_3  and  C_4
    4  A    between atoms: C_4  and  C_5
    5  A    between atoms: C_5  and  C_6
    6  A    between atoms: C_5  and  O_8
    7  A    between atoms: C_6  and  C_7
    8  A    between atoms: O_8  and  C_9
    9  A    between atoms: C_9  and  C_11
   10  A    between atoms: C_12  and  C_13
   11  A    between atoms: C_16  and  O_17
   12  A    between atoms: O_17  and  C_18
                            x       y       z     vdW  Elec       q    Type
                         _______ _______ _______ _____ _____    ______ ____

>  <TORSDO>
F 9

$$$$
shuffle_control_ligand
 OpenBabel10092621103D

 20 20  0  0  1  0  0  0  0  0999 V2000
   -2.6000   -1.3400    6.5720 C   0  0  0  0  0  0  0  0  0  0  0  0
   -2.5050   -2.2380    7.3640 O   0  0  0  0  0  0  0  0  0  0  0  0
   -3.4360   -0.1320    6.7720 C   0  0  0  0  0  3  0  0  0  0  0  0
   -4.5440   -0.1830    7.5170 C   0  0  0  0  0  3  0  0  0  0  0  0
   -5.4450    0.9720    7.7400 C   0  0  0  0  0  0  0  0  0  0  0  0
   -5.0090    2.1510    8.2870 C   0  0  0  0  0  3  0  0  0  0  0  0
   -5.8890    3.2110    8.4780 C   0  0  0  0  0  3  0  0  0  0  0  0
   -7.2070    3.0930    8.1230 C   0  0  0  0  0  0  0  0  0  0  0  0
   -7.6500    1.9140    7.5770 C   0  0  0  0  0  3  0  0  0  0  0  0
   -6.7720    0.8530    7.3870 C   0  0  0  0  0  3  0  0  0  0  0  0
   -8.1170    4.0980    8.2790 O   0  0  0  0  0  0  0  0  0  0  0  0
   -9.3820    4.0100    7.6510 C   0  0  0  0  0  1  0  0  0  0  0  0
   -1.9410   -1.3560    5.4080 O   0  0  0  0  0  0  0  0  0  0  0  0
   -0.7200   -0.6590    5.2700 C   0  0  1  0  0  3  0  0  0  0  0  0
    0.2730   -1.5020    4.4860 C   0  0  0  0  0  2  0  0  0  0  0  0
    1.6530   -0.9440    4.4090 C   0  0  0  0  0  1  0  0  0  0  0  0
   -0.9820    0.6240    4.5140 C   0  0  0  0  0  2  0  0  0  0  0  0
   -0.5760    1.8570    5.2550 C   0  0  0  0  0  2  0  0  0  0  0  0
   -0.8760    2.2750    7.6950 C   0  0  0  0  0  1  0  0  0  0  0  0
   -0.0850    1.5490    6.6450 C   0  0  0  0  0  2  0  0  0  0  0  0
  1  3  1  0  0  0  0
  1  2  2  0  0  0  0
  3  4  2  0  0  0  0
  4  5  1  0  0  0  0
  5  6  1  0  0  0  0
  6  7  2  0  0  0  0
  8 11  1  0  0  0  0
  8  7  1  0  0  0  0
  9  8  2  0  0  0  0
 10  9  1  0  0  0  0
 10  5  2  0  0  0  0
 12 11  1  0  0  0  0
 13  1  1  0  0  0  0
 14 15  1  6  0  0  0
 14 13  1  0  0  0  0
 16 15  1  0  0  0  0
 17 18  1  0  0  0  0
 17 14  1  0  0  0  0
 18 20  1  0  0  0  0
 20 19  1  0  0  0  0
M  END
>  <MODEL>
5

>  <REMARK>
 VINA RESULT:      -4.3      1.238      2.528
  Name = shuffle_control_ligand
  12 active torsions:
  status: ('A' for Active; 'I' for Inactive)
    1  A    between atoms: C_1  and  C_2
    2  A    between atoms: C_2  and  C_3
    3  A    between atoms: C_3  and  C_4
    4  A    between atoms: C_4  and  C_5
    5  A    between atoms: C_5  and  C_6
    6  A    between atoms: C_5  and  O_8
    7  A    between atoms: C_6  and  C_7
    8  A    between atoms: O_8  and  C_9
    9  A    between atoms: C_9  and  C_11
   10  A    between atoms: C_12  and  C_13
   11  A    between atoms: C_16  and  O_17
   12  A    between atoms: O_17  and  C_18
                            x       y       z     vdW  Elec       q    Type
                         _______ _______ _______ _____ _____    ______ ____

>  <TORSDO>
F 9

$$$$
shuffle_control_ligand
 OpenBabel10092621103D

 20 20  0  0  1  0  0  0  0  0999 V2000
   -5.5300   -1.1840    8.4470 C   0  0  0  0  0  0  0  0  0  0  0  0
   -5.6650   -1.4780    9.6040 O   0  0  0  0  0  0  0  0  0  0  0  0
   -4.2820   -1.3830    7.6720 C   0  0  0  0  0  3  0  0  0  0  0  0
   -3.7820   -0.4020    6.9150 C   0  0  0  0  0  3  0  0  0  0  0  0
   -2.5570   -0.5320    6.0920 C   0  0  0  0  0  0  0  0  0  0  0  0
   -1.9240    0.5500    5.5370 C   0  0  0  0  0  3  0  0  0  0  0  0
   -0.7760    0.3820    4.7720 C   0  0  0  0  0  3  0  0  0  0  0  0
   -0.2590   -0.8680    4.5580 C   0  0  0  0  0  0  0  0  0  0  0  0
   -0.8900   -1.9560    5.1090 C   0  0  0  0  0  3  0  0  0  0  0  0
   -2.0400   -1.7910    5.8730 C   0  0  0  0  0  3  0  0  0  0  0  0
    0.8680   -1.0980    3.8230 O   0  0  0  0  0  0  0  0  0  0  0  0
    2.1260   -0.6660    4.3030 C   0  0  0  0  0  1  0  0  0  0  0  0
   -6.5240   -0.6350    7.7400 O   0  0  0  0  0  0  0  0  0  0  0  0
   -7.3770    0.3220    8.3330 C   0  0  1  0  0  3  0  0  0  0  0  0
   -6.9710    1.7210    7.8980 C   0  0  0  0  0  2  0  0  0  0  0  0
   -8.1030    2.6490    7.6200 C   0  0  0  0  0  1  0  0  0  0  0  0
   -8.7930    0.0540    7.8710 C   0  0  0  0  0  2  0  0  0  0  0  0
   -8.9310   -1.1650    7.0190 C   0  0  0  0  0  2  0  0  0  0  0  0
   -9.3880    0.2980    5.0510 C   0  0  0  0  0  1  0  0  0  0  0  0
   -9.8090   -0.9230    5.8190 C   0  0  0  0  0  2  0  0  0  0  0  0
  1  2  2  0  0  0  0
  3  1  1  0  0  0  0
  4  3  2  0  0  0  0
  5  4  1  0  0  0  0
  6  5  2  0  0  0  0
  7  6  1  0  0  0  0
  8  7  2  0  0  0  0
  8  9  1  0  0  0  0
  9 10  2  0  0  0  0
 10  5  1  0  0  0  0
 11 12  1  0  0  0  0
 11  8  1  0  0  0  0
 13 14  1  0  0  0  0
 13  1  1  0  0  0  0
 14 17  1  6  0  0  0
 15 14  1  0  0  0  0
 16 15  1  0  0  0  0
 18 17  1  0  0  0  0
 19 20  1  0  0  0  0
 20 18  1  0  0  0  0
M  END
>  <MODEL>
6

>  <REMARK>
 VINA RESULT:      -4.3      2.264      7.949
  Name = shuffle_control_ligand
  12 active torsions:
  status: ('A' for Active; 'I' for Inactive)
    1  A    between atoms: C_1  and  C_2
    2  A    between atoms: C_2  and  C_3
    3  A    between atoms: C_3  and  C_4
    4  A    between atoms: C_4  and  C_5
    5  A    between atoms: C_5  and  C_6
    6  A    between atoms: C_5  and  O_8
    7  A    between atoms: C_6  and  C_7
    8  A    between atoms: O_8  and  C_9
    9  A    between atoms: C_9  and  C_11
   10  A    between atoms: C_12  and  C_13
   11  A    between atoms: C_16  and  O_17
   12  A    between atoms: O_17  and  C_18
                            x       y       z     vdW  Elec       q    Type
                         _______ _______ _______ _____ _____    ______ ____

>  <TORSDO>
F 9

$$$$
shuffle_control_ligand
 OpenBabel10092621103D

 20 20  0  0  1  0  0  0  0  0999 V2000
   -2.5060    0.9240    7.5620 C   0  0  0  0  0  0  0  0  0  0  0  0
   -2.2540    1.7420    8.4050 O   0  0  0  0  0  0  0  0  0  0  0  0
   -3.8600    0.3780    7.3050 C   0  0  0  0  0  3  0  0  0  0  0  0
   -4.9460    0.9810    7.7960 C   0  0  0  0  0  3  0  0  0  0  0  0
   -6.3290    0.4820    7.6070 C   0  0  0  0  0  0  0  0  0  0  0  0
   -7.3420    1.2800    7.1430 C   0  0  0  0  0  3  0  0  0  0  0  0
   -8.6260    0.7690    6.9790 C   0  0  0  0  0  3  0  0  0  0  0  0
   -8.8970   -0.5390    7.2790 C   0  0  0  0  0  0  0  0  0  0  0  0
   -7.8870   -1.3430    7.7460 C   0  0  0  0  0  3  0  0  0  0  0  0
   -6.6030   -0.8340    7.9130 C   0  0  0  0  0  3  0  0  0  0  0  0
  -10.1320   -1.1000    7.1330 O   0  0  0  0  0  0  0  0  0  0  0  0
  -10.5690   -1.5280    5.8570 C   0  0  0  0  0  1  0  0  0  0  0  0
   -1.5590    0.4230    6.7620 O   0  0  0  0  0  0  0  0  0  0  0  0
   -1.8440    0.1430    5.4070 C   0  0  1  0  0  3  0  0  0  0  0  0
   -1.2130    1.2000    4.5150 C   0  0  0  0  0  2  0  0  0  0  0  0
   -0.2680    2.1250    5.2020 C   0  0  0  0  0  1  0  0  0  0  0  0
   -1.2570   -1.2080    5.0620 C   0  0  0  0  0  2  0  0  0  0  0  0
   -0.0790   -1.1390    4.1450 C   0  0  0  0  0  2  0  0  0  0  0  0
    2.3490   -0.6250    4.3960 C   0  0  0  0  0  1  0  0  0  0  0  0
    1.2070   -1.4920    4.8450 C   0  0  0  0  0  2  0  0  0  0  0  0
  1  2  2  0  0  0  0
  3  1  1  0  0  0  0
  3  4  2  0  0  0  0
  5  4  1  0  0  0  0
  5 10  1  0  0  0  0
  6  5  2  0  0  0  0
  7  6  1  0  0  0  0
  7  8  2  0  0  0  0
  8  9  1  0  0  0  0
  9 10  2  0  0  0  0
 11  8  1  0  0  0  0
 12 11  1  0  0  0  0
 13  1  1  0  0  0  0
 14 15  1  6  0  0  0
 14 13  1  0  0  0  0
 15 16  1  0  0  0  0
 17 14  1  0  0  0  0
 18 20  1  0  0  0  0
 18 17  1  0  0  0  0
 19 20  1  0  0  0  0
M  END
>  <MODEL>
7

>  <REMARK>
 VINA RESULT:      -4.3      1.745      2.453
  Name = shuffle_control_ligand
  12 active torsions:
  status: ('A' for Active; 'I' for Inactive)
    1  A    between atoms: C_1  and  C_2
    2  A    between atoms: C_2  and  C_3
    3  A    between atoms: C_3  and  C_4
    4  A    between atoms: C_4  and  C_5
    5  A    between atoms: C_5  and  C_6
    6  A    between atoms: C_5  and  O_8
    7  A    between atoms: C_6  and  C_7
    8  A    between atoms: O_8  and  C_9
    9  A    between atoms: C_9  and  C_11
   10  A    between atoms: C_12  and  C_13
   11  A    between atoms: C_16  and  O_17
   12  A    between atoms: O_17  and  C_18
                            x       y       z     vdW  Elec       q    Type
                         _______ _______ _______ _____ _____    ______ ____

>  <TORSDO>
F 9

$$$$
shuffle_control_ligand
 OpenBabel10092621103D

 20 20  0  0  1  0  0  0  0  0999 V2000
   -0.8460    1.1850    4.8590 C   0  0  0  0  0  0  0  0  0  0  0  0
   -1.1890    2.1500    4.2310 O   0  0  0  0  0  0  0  0  0  0  0  0
   -1.7680    0.1330    5.3490 C   0  0  0  0  0  3  0  0  0  0  0  0
   -2.5390    0.3430    6.4190 C   0  0  0  0  0  3  0  0  0  0  0  0
   -3.4640   -0.6670    6.9860 C   0  0  0  0  0  0  0  0  0  0  0  0
   -3.2040   -2.0130    6.9360 C   0  0  0  0  0  3  0  0  0  0  0  0
   -4.1000   -2.9260    7.4820 C   0  0  0  0  0  3  0  0  0  0  0  0
   -5.2560   -2.4960    8.0770 C   0  0  0  0  0  0  0  0  0  0  0  0
   -5.5220   -1.1500    8.1280 C   0  0  0  0  0  3  0  0  0  0  0  0
   -4.6290   -0.2350    7.5810 C   0  0  0  0  0  3  0  0  0  0  0  0
   -6.1700   -3.3410    8.6360 O   0  0  0  0  0  0  0  0  0  0  0  0
   -7.4920   -3.3840    8.1370 C   0  0  0  0  0  1  0  0  0  0  0  0
    0.4350    0.9740    5.1800 O   0  0  0  0  0  0  0  0  0  0  0  0
    0.9170   -0.3400    5.3680 C   0  0  1  0  0  3  0  0  0  0  0  0
    1.9350   -0.6800    4.2910 C   0  0  0  0  0  2  0  0  0  0  0  0
    3.2550   -0.0040    4.4340 C   0  0  0  0  0  1  0  0  0  0  0  0
    1.5870   -0.4170    6.7220 C   0  0  0  0  0  2  0  0  0  0  0  0
    0.7610   -1.0890    7.7700 C   0  0  0  0  0  2  0  0  0  0  0  0
   -0.8610   -0.7480    9.6340 C   0  0  0  0  0  1  0  0  0  0  0  0
    0.1570   -0.1030    8.7360 C   0  0  0  0  0  2  0  0  0  0  0  0
  1 13  1  0  0  0  0
  1  3  1  0  0  0  0
  2  1  2  0  0  0  0
  3  4  2  0  0  0  0
  4  5  1  0  0  0  0
  5 10  1  0  0  0  0
  6  5  2  0  0  0  0
  6  7  1  0  0  0  0
  7  8  2  0  0  0  0
  8  9  1  0  0  0  0
  8 11  1  0  0  0  0
 10  9  2  0  0  0  0
 12 11  1  0  0  0  0
 13 14  1  0  0  0  0
 14 15  1  6  0  0  0
 14 17  1  0  0  0  0
 15 16  1  0  0  0  0
 17 18  1  0  0  0  0
 18 20  1  0  0  0  0
 20 19  1  0  0  0  0
M  END
>  <MODEL>
8

>  <REMARK>
 VINA RESULT:      -4.2      3.322      4.684
  Name = shuffle_control_ligand
  12 active torsions:
  status: ('A' for Active; 'I' for Inactive)
    1  A    between atoms: C_1  and  C_2
    2  A    between atoms: C_2  and  C_3
    3  A    between atoms: C_3  and  C_4
    4  A    between atoms: C_4  and  C_5
    5  A    between atoms: C_5  and  C_6
    6  A    between atoms: C_5  and  O_8
    7  A    between atoms: C_6  and  C_7
    8  A    between atoms: O_8  and  C_9
    9  A    between atoms: C_9  and  C_11
   10  A    between atoms: C_12  and  C_13
   11  A    between atoms: C_16  and  O_17
   12  A    between atoms: O_17  and  C_18
                            x       y       z     vdW  Elec       q    Type
                         _______ _______ _______ _____ _____    ______ ____

>  <TORSDO>
F 9

$$$$
shuffle_control_ligand
 OpenBabel10092621103D

 20 20  0  0  1  0  0  0  0  0999 V2000
   -2.8320    1.6780    8.4160 C   0  0  0  0  0  0  0  0  0  0  0  0
   -2.3240    1.2860    9.4310 O   0  0  0  0  0  0  0  0  0  0  0  0
   -4.2190    2.1930    8.3180 C   0  0  0  0  0  3  0  0  0  0  0  0
   -5.2120    1.4070    7.8940 C   0  0  0  0  0  3  0  0  0  0  0  0
   -6.6170    1.8560    7.7420 C   0  0  0  0  0  0  0  0  0  0  0  0
   -7.0370    3.1020    8.1290 C   0  0  0  0  0  3  0  0  0  0  0  0
   -8.3650    3.4820    7.9670 C   0  0  0  0  0  3  0  0  0  0  0  0
   -9.2750    2.6170    7.4200 C   0  0  0  0  0  0  0  0  0  0  0  0
   -8.8600    1.3660    7.0330 C   0  0  0  0  0  3  0  0  0  0  0  0
   -7.5340    0.9830    7.1960 C   0  0  0  0  0  3  0  0  0  0  0  0
  -10.5880    2.9330    7.2290 O   0  0  0  0  0  0  0  0  0  0  0  0
  -11.3590    3.4360    8.3030 C   0  0  0  0  0  1  0  0  0  0  0  0
   -2.1710    1.6810    7.2540 O   0  0  0  0  0  0  0  0  0  0  0  0
   -1.5870    0.4930    6.7620 C   0  0  1  0  0  3  0  0  0  0  0  0
   -2.6240   -0.3210    6.0050 C   0  0  0  0  0  2  0  0  0  0  0  0
   -2.6750   -1.7670    6.3610 C   0  0  0  0  0  1  0  0  0  0  0  0
   -0.4660    0.8640    5.8170 C   0  0  0  0  0  2  0  0  0  0  0  0
    0.7550    0.0150    5.9640 C   0  0  0  0  0  2  0  0  0  0  0  0
    0.2040   -1.2470    3.8840 C   0  0  0  0  0  1  0  0  0  0  0  0
    1.2600   -0.4890    4.6370 C   0  0  0  0  0  2  0  0  0  0  0  0
  1  2  2  0  0  0  0
  3  1  1  0  0  0  0
  4  3  2  0  0  0  0
  5  4  1  0  0  0  0
  5  6  1  0  0  0  0
  7  6  2  0  0  0  0
  8  7  1  0  0  0  0
  9 10  1  0  0  0  0
  9  8  2  0  0  0  0
 10  5  2  0  0  0  0
 11  8  1  0  0  0  0
 11 12  1  0  0  0  0
 13  1  1  0  0  0  0
 14 17  1  6  0  0  0
 14 13  1  0  0  0  0
 15 16  1  0  0  0  0
 15 14  1  0  0  0  0
 17 18  1  0  0  0  0
 19 20  1  0  0  0  0
 20 18  1  0  0  0  0
M  END
>  <MODEL>
9

>  <REMARK>
 VINA RESULT:      -4.2      1.349      2.256
  Name = shuffle_control_ligand
  12 active torsions:
  status: ('A' for Active; 'I' for Inactive)
    1  A    between atoms: C_1  and  C_2
    2  A    between atoms: C_2  and  C_3
    3  A    between atoms: C_3  and  C_4
    4  A    between atoms: C_4  and  C_5
    5  A    between atoms: C_5  and  C_6
    6  A    between atoms: C_5  and  O_8
    7  A    between atoms: C_6  and  C_7
    8  A    between atoms: O_8  and  C_9
    9  A    between atoms: C_9  and  C_11
   10  A    between atoms: C_12  and  C_13
   11  A    between atoms: C_16  and  O_17
   12  A    between atoms: O_17  and  C_18
                            x       y       z     vdW  Elec       q    Type
                         _______ _______ _______ _____ _____    ______ ____

>  <TORSDO>
F 9

$$$$
