bgox31_5_ligand
     RDKit          3D

 29 30  0  0  0  0  0  0  0  0999 V2000
  -10.0209    5.5873   -0.0016 C   0  0  0  0  0  0  0  0  0  0  0  0
   -9.4366    5.4990   -1.3322 O   0  0  0  0  0  0  0  0  0  0  0  0
   -8.0455    5.1677   -1.5031 C   0  0  0  0  0  0  0  0  0  0  0  0
   -7.5931    5.4444   -2.7547 C   0  0  0  0  0  0  0  0  0  0  0  0
   -6.2440    5.1824   -3.0754 C   0  0  0  0  0  0  0  0  0  0  0  0
   -5.3464    4.6653   -2.1638 C   0  0  0  0  0  0  0  0  0  0  0  0
   -3.9754    4.4424   -2.5552 C   0  0  0  0  0  0  0  0  0  0  0  0
   -3.1105    4.3696   -1.6730 O   0  0  0  0  0  0  0  0  0  0  0  0
   -3.5975    4.4115   -4.0035 C   0  0  0  0  0  0  0  0  0  0  0  0
   -2.6436    5.2317   -4.5806 C   0  0  0  0  0  0  0  0  0  0  0  0
   -2.3366    5.1512   -5.9668 C   0  0  0  0  0  0  0  0  0  0  0  0
   -2.9520    4.2580   -6.7914 C   0  0  0  0  0  0  0  0  0  0  0  0
   -3.8880    3.4084   -6.2519 C   0  0  0  0  0  0  0  0  0  0  0  0
   -4.2126    3.5198   -4.8794 C   0  0  0  0  0  0  0  0  0  0  0  0
   -5.8079    4.3945   -0.8781 C   0  0  0  0  0  0  0  0  0  0  0  0
   -4.9579    3.8748    0.0408 O   0  0  0  0  0  0  0  0  0  0  0  0
   -7.1646    4.6530   -0.5401 C   0  0  0  0  0  0  0  0  0  0  0  0
   -9.2264    5.5012    0.7542 H   0  0  0  0  0  0  0  0  0  0  0  0
  -10.5312    6.5552    0.1114 H   0  0  0  0  0  0  0  0  0  0  0  0
  -10.7467    4.7720    0.1349 H   0  0  0  0  0  0  0  0  0  0  0  0
   -8.2716    5.8681   -3.5098 H   0  0  0  0  0  0  0  0  0  0  0  0
   -5.8931    5.3995   -4.0951 H   0  0  0  0  0  0  0  0  0  0  0  0
   -2.1112    5.9617   -3.9532 H   0  0  0  0  0  0  0  0  0  0  0  0
   -1.5796    5.8305   -6.3860 H   0  0  0  0  0  0  0  0  0  0  0  0
   -2.7057    4.2178   -7.8627 H   0  0  0  0  0  0  0  0  0  0  0  0
   -4.3791    2.6505   -6.8800 H   0  0  0  0  0  0  0  0  0  0  0  0
   -4.9986    2.8623   -4.4795 H   0  0  0  0  0  0  0  0  0  0  0  0
   -5.2783    3.6795    0.9569 H   0  0  0  0  0  0  0  0  0  0  0  0
   -7.5245    4.4490    0.4791 H   0  0  0  0  0  0  0  0  0  0  0  0
  2  1  1  0
  3  2  1  0
  4  3  1  0
  5  4  2  0
  6  5  1  0
  7  6  1  0
  8  7  2  0
  9  7  1  0
 10  9  2  0
 11 10  1  0
 12 11  2  0
 13 12  1  0
 14 13  2  0
 14  9  1  0
 15  6  2  0
 16 15  1  0
 17 15  1  0
 17  3  2  0
  1 18  1  0
  1 19  1  0
  1 20  1  0
  4 21  1  0
  5 22  1  0
 10 23  1  0
 11 24  1  0
 12 25  1  0
 13 26  1  0
 14 27  1  0
 16 28  1  0
 17 29  1  0
M  END
$$$$
