bgox31_5_ligand
 OpenBabel10092621253D

 18 19  0  0  0  0  0  0  0  0999 V2000
   -3.0690    4.1040   -5.7030 C   0  0  0  0  0  0  0  0  0  0  0  0
   -4.2430    4.7210   -5.4020 C   0  0  0  0  0  3  0  0  0  0  0  0
   -4.5510    4.9980   -4.0530 C   0  0  0  0  0  3  0  0  0  0  0  0
   -3.7150    4.6580   -3.0090 C   0  0  0  0  0  0  0  0  0  0  0  0
   -2.5190    4.0140   -3.3180 C   0  0  0  0  0  0  0  0  0  0  0  0
   -2.1940    3.7270   -4.6730 C   0  0  0  0  0  3  0  0  0  0  0  0
   -1.8510    3.0150   -7.6160 C   0  0  0  0  0  1  0  0  0  0  0  0
   -2.9070    3.8830   -7.1170 O   0  0  0  0  0  0  0  0  0  0  0  0
   -4.1050    4.9530   -1.6520 C   0  0  0  0  0  0  0  0  0  0  0  0
   -3.2340    5.3050   -0.8480 O   0  0  0  0  0  0  0  0  0  0  0  0
   -5.5160    4.7290   -1.2050 C   0  0  0  0  0  0  0  0  0  0  0  0
   -6.3790    5.7330   -0.8020 C   0  0  0  0  0  3  0  0  0  0  0  0
   -7.7090    5.4470   -0.3870 C   0  0  0  0  0  3  0  0  0  0  0  0
   -8.2040    4.1790   -0.3770 C   0  0  0  0  0  3  0  0  0  0  0  0
   -7.3870    3.1550   -0.7940 C   0  0  0  0  0  3  0  0  0  0  0  0
   -6.0540    3.4440   -1.1710 C   0  0  0  0  0  3  0  0  0  0  0  0
   -1.6670    3.6740   -2.3200 O   0  0  0  0  0  0  0  0  0  0  0  0
   -1.9940    3.6170   -1.3880 H   0  0  0  0  0  0  0  0  0  0  0  0
  1  2  2  0  0  0  0
  1  6  1  0  0  0  0
  2  3  1  0  0  0  0
  3  4  2  0  0  0  0
  4  9  1  0  0  0  0
  5  4  1  0  0  0  0
  5 17  1  0  0  0  0
  6  5  2  0  0  0  0
  7  8  1  0  0  0  0
  8  1  1  0  0  0  0
  9 11  1  0  0  0  0
  9 10  2  0  0  0  0
 11 16  2  0  0  0  0
 11 12  1  0  0  0  0
 12 13  2  0  0  0  0
 13 14  1  0  0  0  0
 15 14  2  0  0  0  0
 16 15  1  0  0  0  0
 17 18  1  0  0  0  0
M  END
>  <MODEL>
1

>  <REMARK>
 VINA RESULT:      -4.6      0.000      0.000
  Name = bgox31_5_ligand
  5 active torsions:
  status: ('A' for Active; 'I' for Inactive)
    1  A    between atoms: C_1  and  O_2
    2  A    between atoms: O_2  and  C_3
    3  A    between atoms: C_6  and  C_7
    4  A    between atoms: C_7  and  C_9
    5  A    between atoms: C_15  and  O_16
                            x       y       z     vdW  Elec       q    Type
                         _______ _______ _______ _____ _____    ______ ____

>  <TORSDO>
F 4

$$$$
bgox31_5_ligand
 OpenBabel10092621253D

 18 19  0  0  0  0  0  0  0  0999 V2000
   -3.3120    4.0240   -5.5200 C   0  0  0  0  0  0  0  0  0  0  0  0
   -4.5300    4.5110   -5.1610 C   0  0  0  0  0  3  0  0  0  0  0  0
   -4.7930    4.7800   -3.8010 C   0  0  0  0  0  3  0  0  0  0  0  0
   -3.8680    4.5590   -2.8020 C   0  0  0  0  0  0  0  0  0  0  0  0
   -2.6250    4.0490   -3.1690 C   0  0  0  0  0  0  0  0  0  0  0  0
   -2.3440    3.7720   -4.5360 C   0  0  0  0  0  3  0  0  0  0  0  0
   -1.9740    3.2680   -7.5120 C   0  0  0  0  0  1  0  0  0  0  0  0
   -3.2040    3.7930   -6.9370 O   0  0  0  0  0  0  0  0  0  0  0  0
   -4.2140    4.8380   -1.4290 C   0  0  0  0  0  0  0  0  0  0  0  0
   -4.0490    3.9500   -0.5840 O   0  0  0  0  0  0  0  0  0  0  0  0
   -4.8620    6.1350   -1.0620 C   0  0  0  0  0  0  0  0  0  0  0  0
   -6.1390    6.2530   -0.5410 C   0  0  0  0  0  3  0  0  0  0  0  0
   -6.6950    7.5210   -0.2170 C   0  0  0  0  0  3  0  0  0  0  0  0
   -5.9980    8.6790   -0.3880 C   0  0  0  0  0  3  0  0  0  0  0  0
   -4.7170    8.6040   -0.8790 C   0  0  0  0  0  3  0  0  0  0  0  0
   -4.1850    7.3410   -1.2330 C   0  0  0  0  0  3  0  0  0  0  0  0
   -1.6860    3.8290   -2.2170 O   0  0  0  0  0  0  0  0  0  0  0  0
   -1.5050    4.5190   -1.5310 H   0  0  0  0  0  0  0  0  0  0  0  0
  1  2  2  0  0  0  0
  1  6  1  0  0  0  0
  2  3  1  0  0  0  0
  3  4  2  0  0  0  0
  4  9  1  0  0  0  0
  5  4  1  0  0  0  0
  5 17  1  0  0  0  0
  6  5  2  0  0  0  0
  7  8  1  0  0  0  0
  8  1  1  0  0  0  0
  9 11  1  0  0  0  0
  9 10  2  0  0  0  0
 11 12  1  0  0  0  0
 12 13  2  0  0  0  0
 14 13  1  0  0  0  0
 15 14  2  0  0  0  0
 16 11  2  0  0  0  0
 16 15  1  0  0  0  0
 17 18  1  0  0  0  0
M  END
>  <MODEL>
2

>  <REMARK>
 VINA RESULT:      -4.5      1.450      2.330
  Name = bgox31_5_ligand
  5 active torsions:
  status: ('A' for Active; 'I' for Inactive)
    1  A    between atoms: C_1  and  O_2
    2  A    between atoms: O_2  and  C_3
    3  A    between atoms: C_6  and  C_7
    4  A    between atoms: C_7  and  C_9
    5  A    between atoms: C_15  and  O_16
                            x       y       z     vdW  Elec       q    Type
                         _______ _______ _______ _____ _____    ______ ____

>  <TORSDO>
F 4

$$$$
bgox31_5_ligand
 OpenBabel10092621253D

 18 19  0  0  0  0  0  0  0  0999 V2000
   -3.7400   10.5340    2.7070 C   0  0  0  0  0  0  0  0  0  0  0  0
   -2.8710   10.0850    1.7620 C   0  0  0  0  0  3  0  0  0  0  0  0
   -3.3720    9.4120    0.6270 C   0  0  0  0  0  3  0  0  0  0  0  0
   -4.7160    9.1710    0.4330 C   0  0  0  0  0  0  0  0  0  0  0  0
   -5.6050    9.6210    1.4080 C   0  0  0  0  0  0  0  0  0  0  0  0
   -5.1150   10.3010    2.5570 C   0  0  0  0  0  3  0  0  0  0  0  0
   -1.7360   11.7340    3.6400 C   0  0  0  0  0  1  0  0  0  0  0  0
   -3.0750   11.1890    3.8030 O   0  0  0  0  0  0  0  0  0  0  0  0
   -5.1550    8.4570   -0.7420 C   0  0  0  0  0  0  0  0  0  0  0  0
   -5.7040    9.0920   -1.6510 O   0  0  0  0  0  0  0  0  0  0  0  0
   -5.0480    6.9660   -0.8030 C   0  0  0  0  0  0  0  0  0  0  0  0
   -3.9000    6.2780   -1.1590 C   0  0  0  0  0  3  0  0  0  0  0  0
   -3.8690    4.8570   -1.1990 C   0  0  0  0  0  3  0  0  0  0  0  0
   -4.9560    4.1020   -0.8770 C   0  0  0  0  0  3  0  0  0  0  0  0
   -6.1090    4.7460   -0.4940 C   0  0  0  0  0  3  0  0  0  0  0  0
   -6.1410    6.1610   -0.4920 C   0  0  0  0  0  3  0  0  0  0  0  0
   -6.9340    9.4130    1.2460 O   0  0  0  0  0  0  0  0  0  0  0  0
   -7.4490    9.9710    0.6110 H   0  0  0  0  0  0  0  0  0  0  0  0
  1  8  1  0  0  0  0
  2  1  2  0  0  0  0
  3  2  1  0  0  0  0
  4  3  2  0  0  0  0
  4  5  1  0  0  0  0
  5  6  2  0  0  0  0
  6  1  1  0  0  0  0
  7  8  1  0  0  0  0
  9  4  1  0  0  0  0
 10  9  2  0  0  0  0
 11  9  1  0  0  0  0
 11 16  1  0  0  0  0
 12 11  2  0  0  0  0
 13 12  1  0  0  0  0
 13 14  2  0  0  0  0
 14 15  1  0  0  0  0
 15 16  2  0  0  0  0
 17  5  1  0  0  0  0
 18 17  1  0  0  0  0
M  END
>  <MODEL>
3

>  <REMARK>
 VINA RESULT:      -4.4      4.736      7.563
  Name = bgox31_5_ligand
  5 active torsions:
  status: ('A' for Active; 'I' for Inactive)
    1  A    between atoms: C_1  and  O_2
    2  A    between atoms: O_2  and  C_3
    3  A    between atoms: C_6  and  C_7
    4  A    between atoms: C_7  and  C_9
    5  A    between atoms: C_15  and  O_16
                            x       y       z     vdW  Elec       q    Type
                         _______ _______ _______ _____ _____    ______ ____

>  <TORSDO>
F 4

$$$$
bgox31_5_ligand
 OpenBabel10092621253D

 18 19  0  0  0  0  0  0  0  0999 V2000
   -9.0710    3.3400   -0.1410 C   0  0  0  0  0  0  0  0  0  0  0  0
   -7.8820    2.6800   -0.1250 C   0  0  0  0  0  3  0  0  0  0  0  0
   -6.7000    3.3770   -0.4540 C   0  0  0  0  0  3  0  0  0  0  0  0
   -6.6920    4.7100   -0.8090 C   0  0  0  0  0  0  0  0  0  0  0  0
   -7.9120    5.3830   -0.8360 C   0  0  0  0  0  0  0  0  0  0  0  0
   -9.1120    4.6940   -0.5080 C   0  0  0  0  0  3  0  0  0  0  0  0
   -9.9590    1.1170    0.6310 C   0  0  0  0  0  1  0  0  0  0  0  0
  -10.1800    2.4910    0.2070 O   0  0  0  0  0  0  0  0  0  0  0  0
   -5.4470    5.3540   -1.1530 C   0  0  0  0  0  0  0  0  0  0  0  0
   -5.2190    6.4830   -0.7040 O   0  0  0  0  0  0  0  0  0  0  0  0
   -4.5080    4.7100   -2.1240 C   0  0  0  0  0  0  0  0  0  0  0  0
   -4.8380    4.3690   -3.4250 C   0  0  0  0  0  3  0  0  0  0  0  0
   -3.8940    3.7560   -4.2940 C   0  0  0  0  0  3  0  0  0  0  0  0
   -2.6190    3.4870   -3.8990 C   0  0  0  0  0  3  0  0  0  0  0  0
   -2.2430    3.8330   -2.6230 C   0  0  0  0  0  3  0  0  0  0  0  0
   -3.1990    4.4090   -1.7530 C   0  0  0  0  0  3  0  0  0  0  0  0
   -7.9420    6.6960   -1.1690 O   0  0  0  0  0  0  0  0  0  0  0  0
   -7.2730    7.3190   -0.7890 H   0  0  0  0  0  0  0  0  0  0  0  0
  1  2  1  0  0  0  0
  1  8  1  0  0  0  0
  3  2  2  0  0  0  0
  4  3  1  0  0  0  0
  5  4  2  0  0  0  0
  5  6  1  0  0  0  0
  6  1  2  0  0  0  0
  8  7  1  0  0  0  0
  9  4  1  0  0  0  0
  9 10  2  0  0  0  0
 11 16  1  0  0  0  0
 11  9  1  0  0  0  0
 12 11  2  0  0  0  0
 13 14  2  0  0  0  0
 13 12  1  0  0  0  0
 14 15  1  0  0  0  0
 15 16  2  0  0  0  0
 17  5  1  0  0  0  0
 17 18  1  0  0  0  0
M  END
>  <MODEL>
4

>  <REMARK>
 VINA RESULT:      -4.4      2.559      6.337
  Name = bgox31_5_ligand
  5 active torsions:
  status: ('A' for Active; 'I' for Inactive)
    1  A    between atoms: C_1  and  O_2
    2  A    between atoms: O_2  and  C_3
    3  A    between atoms: C_6  and  C_7
    4  A    between atoms: C_7  and  C_9
    5  A    between atoms: C_15  and  O_16
                            x       y       z     vdW  Elec       q    Type
                         _______ _______ _______ _____ _____    ______ ____

>  <TORSDO>
F 4

$$$$
bgox31_5_ligand
 OpenBabel10092621253D

 18 19  0  0  0  0  0  0  0  0999 V2000
   -5.7630    9.0530   -0.4900 C   0  0  0  0  0  0  0  0  0  0  0  0
   -4.5580    8.5820   -0.9090 C   0  0  0  0  0  3  0  0  0  0  0  0
   -4.3650    7.1890   -1.0300 C   0  0  0  0  0  3  0  0  0  0  0  0
   -5.3480    6.2690   -0.7270 C   0  0  0  0  0  0  0  0  0  0  0  0
   -6.5780    6.7520   -0.2860 C   0  0  0  0  0  0  0  0  0  0  0  0
   -6.7870    8.1530   -0.1590 C   0  0  0  0  0  3  0  0  0  0  0  0
   -4.7470   11.2210    0.2830 C   0  0  0  0  0  1  0  0  0  0  0  0
   -5.7970   10.4900   -0.4100 O   0  0  0  0  0  0  0  0  0  0  0  0
   -5.0730    4.8580   -0.8540 C   0  0  0  0  0  0  0  0  0  0  0  0
   -5.3760    4.1080    0.0820 O   0  0  0  0  0  0  0  0  0  0  0  0
   -4.3350    4.3360   -2.0470 C   0  0  0  0  0  0  0  0  0  0  0  0
   -4.9230    4.0450   -3.2660 C   0  0  0  0  0  3  0  0  0  0  0  0
   -4.1600    3.5490   -4.3580 C   0  0  0  0  0  3  0  0  0  0  0  0
   -2.8160    3.3490   -4.2680 C   0  0  0  0  0  3  0  0  0  0  0  0
   -2.1890    3.6490   -3.0820 C   0  0  0  0  0  3  0  0  0  0  0  0
   -2.9620    4.1090   -1.9890 C   0  0  0  0  0  3  0  0  0  0  0  0
   -7.5710    5.8790    0.0100 O   0  0  0  0  0  0  0  0  0  0  0  0
   -8.0000    5.3540   -0.7110 H   0  0  0  0  0  0  0  0  0  0  0  0
  1  8  1  0  0  0  0
  1  6  1  0  0  0  0
  2  1  2  0  0  0  0
  3  2  1  0  0  0  0
  3  4  2  0  0  0  0
  4  5  1  0  0  0  0
  5  6  2  0  0  0  0
  5 17  1  0  0  0  0
  8  7  1  0  0  0  0
  9  4  1  0  0  0  0
  9 10  2  0  0  0  0
 11 16  1  0  0  0  0
 11  9  1  0  0  0  0
 12 11  2  0  0  0  0
 13 14  2  0  0  0  0
 13 12  1  0  0  0  0
 14 15  1  0  0  0  0
 15 16  2  0  0  0  0
 18 17  1  0  0  0  0
M  END
>  <MODEL>
5

>  <REMARK>
 VINA RESULT:      -4.4      2.867      6.111
  Name = bgox31_5_ligand
  5 active torsions:
  status: ('A' for Active; 'I' for Inactive)
    1  A    between atoms: C_1  and  O_2
    2  A    between atoms: O_2  and  C_3
    3  A    between atoms: C_6  and  C_7
    4  A    between atoms: C_7  and  C_9
    5  A    between atoms: C_15  and  O_16
                            x       y       z     vdW  Elec       q    Type
                         _______ _______ _______ _____ _____    ______ ____

>  <TORSDO>
F 4

$$$$
bgox31_5_ligand
 OpenBabel10092621253D

 18 19  0  0  0  0  0  0  0  0999 V2000
   -8.2300    3.9480   -0.5150 C   0  0  0  0  0  0  0  0  0  0  0  0
   -7.3740    3.0270   -1.0320 C   0  0  0  0  0  3  0  0  0  0  0  0
   -6.0550    3.4120   -1.3530 C   0  0  0  0  0  3  0  0  0  0  0  0
   -5.5890    4.6990   -1.1790 C   0  0  0  0  0  0  0  0  0  0  0  0
   -6.4700    5.6450   -0.6610 C   0  0  0  0  0  0  0  0  0  0  0  0
   -7.8030    5.2720   -0.3330 C   0  0  0  0  0  3  0  0  0  0  0  0
   -9.7610    1.9660   -0.2820 C   0  0  0  0  0  1  0  0  0  0  0  0
   -9.5360    3.4030   -0.2500 O   0  0  0  0  0  0  0  0  0  0  0  0
   -4.2330    5.0270   -1.5490 C   0  0  0  0  0  0  0  0  0  0  0  0
   -3.5020    5.5620   -0.7080 O   0  0  0  0  0  0  0  0  0  0  0  0
   -3.7650    4.8250   -2.9560 C   0  0  0  0  0  0  0  0  0  0  0  0
   -4.2700    5.4990   -4.0550 C   0  0  0  0  0  3  0  0  0  0  0  0
   -3.7780    5.2540   -5.3660 C   0  0  0  0  0  3  0  0  0  0  0  0
   -2.7810    4.3590   -5.6080 C   0  0  0  0  0  3  0  0  0  0  0  0
   -2.2340    3.6860   -4.5410 C   0  0  0  0  0  3  0  0  0  0  0  0
   -2.7540    3.9090   -3.2440 C   0  0  0  0  0  3  0  0  0  0  0  0
   -6.0440    6.9170   -0.4650 O   0  0  0  0  0  0  0  0  0  0  0  0
   -5.8980    7.2550    0.4540 H   0  0  0  0  0  0  0  0  0  0  0  0
  1  6  1  0  0  0  0
  1  8  1  0  0  0  0
  2  1  2  0  0  0  0
  3  4  2  0  0  0  0
  3  2  1  0  0  0  0
  4  5  1  0  0  0  0
  5 17  1  0  0  0  0
  5  6  2  0  0  0  0
  7  8  1  0  0  0  0
  9  4  1  0  0  0  0
  9 10  2  0  0  0  0
 11  9  1  0  0  0  0
 12 11  2  0  0  0  0
 13 12  1  0  0  0  0
 14 13  2  0  0  0  0
 14 15  1  0  0  0  0
 15 16  2  0  0  0  0
 16 11  1  0  0  0  0
 17 18  1  0  0  0  0
M  END
>  <MODEL>
6

>  <REMARK>
 VINA RESULT:      -4.2      1.928      5.936
  Name = bgox31_5_ligand
  5 active torsions:
  status: ('A' for Active; 'I' for Inactive)
    1  A    between atoms: C_1  and  O_2
    2  A    between atoms: O_2  and  C_3
    3  A    between atoms: C_6  and  C_7
    4  A    between atoms: C_7  and  C_9
    5  A    between atoms: C_15  and  O_16
                            x       y       z     vdW  Elec       q    Type
                         _______ _______ _______ _____ _____    ______ ____

>  <TORSDO>
F 4

$$$$
bgox31_5_ligand
 OpenBabel10092621253D

 18 19  0  0  0  0  0  0  0  0999 V2000
   -1.9690    1.7120   -9.8630 C   0  0  0  0  0  0  0  0  0  0  0  0
   -1.4400    1.2640   -8.6940 C   0  0  0  0  0  3  0  0  0  0  0  0
   -1.3600    2.1400   -7.5910 C   0  0  0  0  0  3  0  0  0  0  0  0
   -1.7850    3.4510   -7.6450 C   0  0  0  0  0  0  0  0  0  0  0  0
   -2.3150    3.9140   -8.8470 C   0  0  0  0  0  0  0  0  0  0  0  0
   -2.4030    3.0430   -9.9680 C   0  0  0  0  0  3  0  0  0  0  0  0
   -0.7390    0.0380  -11.2820 C   0  0  0  0  0  1  0  0  0  0  0  0
   -1.9720    0.7050  -10.8920 O   0  0  0  0  0  0  0  0  0  0  0  0
   -1.6530    4.2970   -6.4830 C   0  0  0  0  0  0  0  0  0  0  0  0
   -0.8400    5.2280   -6.5170 O   0  0  0  0  0  0  0  0  0  0  0  0
   -2.4040    3.9790   -5.2280 C   0  0  0  0  0  0  0  0  0  0  0  0
   -3.7750    3.8010   -5.1610 C   0  0  0  0  0  3  0  0  0  0  0  0
   -4.4260    3.5030   -3.9320 C   0  0  0  0  0  3  0  0  0  0  0  0
   -3.7360    3.3650   -2.7660 C   0  0  0  0  0  3  0  0  0  0  0  0
   -2.3690    3.5090   -2.7940 C   0  0  0  0  0  3  0  0  0  0  0  0
   -1.7340    3.8410   -4.0140 C   0  0  0  0  0  3  0  0  0  0  0  0
   -2.7540    5.1930   -8.9350 O   0  0  0  0  0  0  0  0  0  0  0  0
   -2.3930    5.7940   -9.6340 H   0  0  0  0  0  0  0  0  0  0  0  0
  1  2  1  0  0  0  0
  2  3  2  0  0  0  0
  4  3  1  0  0  0  0
  4  9  1  0  0  0  0
  5  4  2  0  0  0  0
  6  1  2  0  0  0  0
  6  5  1  0  0  0  0
  7  8  1  0  0  0  0
  8  1  1  0  0  0  0
  9 11  1  0  0  0  0
 10  9  2  0  0  0  0
 11 12  2  0  0  0  0
 11 16  1  0  0  0  0
 12 13  1  0  0  0  0
 13 14  2  0  0  0  0
 15 14  1  0  0  0  0
 16 15  2  0  0  0  0
 17  5  1  0  0  0  0
 18 17  1  0  0  0  0
M  END
>  <MODEL>
7

>  <REMARK>
 VINA RESULT:      -4.1      3.215      5.428
  Name = bgox31_5_ligand
  5 active torsions:
  status: ('A' for Active; 'I' for Inactive)
    1  A    between atoms: C_1  and  O_2
    2  A    between atoms: O_2  and  C_3
    3  A    between atoms: C_6  and  C_7
    4  A    between atoms: C_7  and  C_9
    5  A    between atoms: C_15  and  O_16
                            x       y       z     vdW  Elec       q    Type
                         _______ _______ _______ _____ _____    ______ ____

>  <TORSDO>
F 4

$$$$
bgox31_5_ligand
 OpenBabel10092621253D

 18 19  0  0  0  0  0  0  0  0999 V2000
   -7.8360    7.9720    0.2360 C   0  0  0  0  0  0  0  0  0  0  0  0
   -6.5080    7.7770    0.0190 C   0  0  0  0  0  3  0  0  0  0  0  0
   -6.0460    6.4920   -0.3340 C   0  0  0  0  0  3  0  0  0  0  0  0
   -6.8850    5.4030   -0.4570 C   0  0  0  0  0  0  0  0  0  0  0  0
   -8.2440    5.6000   -0.2230 C   0  0  0  0  0  0  0  0  0  0  0  0
   -8.7250    6.8910    0.1330 C   0  0  0  0  0  3  0  0  0  0  0  0
   -9.3550    9.6450    1.3400 C   0  0  0  0  0  1  0  0  0  0  0  0
   -8.1450    9.3310    0.5940 O   0  0  0  0  0  0  0  0  0  0  0  0
   -6.3400    4.1120   -0.8000 C   0  0  0  0  0  0  0  0  0  0  0  0
   -6.8160    3.1050   -0.2620 O   0  0  0  0  0  0  0  0  0  0  0  0
   -5.1500    4.0100   -1.7020 C   0  0  0  0  0  0  0  0  0  0  0  0
   -3.8350    4.1040   -1.2770 C   0  0  0  0  0  3  0  0  0  0  0  0
   -2.7510    4.0000   -2.1910 C   0  0  0  0  0  3  0  0  0  0  0  0
   -2.9470    3.7890   -3.5220 C   0  0  0  0  0  3  0  0  0  0  0  0
   -4.2370    3.6650   -3.9810 C   0  0  0  0  0  3  0  0  0  0  0  0
   -5.3110    3.8060   -3.0700 C   0  0  0  0  0  3  0  0  0  0  0  0
   -9.1010    4.5580   -0.3460 O   0  0  0  0  0  0  0  0  0  0  0  0
   -9.5560    4.3890   -1.2080 H   0  0  0  0  0  0  0  0  0  0  0  0
  1  8  1  0  0  0  0
  2  1  2  0  0  0  0
  3  2  1  0  0  0  0
  4  3  2  0  0  0  0
  4  5  1  0  0  0  0
  5  6  2  0  0  0  0
  6  1  1  0  0  0  0
  8  7  1  0  0  0  0
  9  4  1  0  0  0  0
  9 10  2  0  0  0  0
 11 12  1  0  0  0  0
 11  9  1  0  0  0  0
 13 12  2  0  0  0  0
 14 13  1  0  0  0  0
 15 14  2  0  0  0  0
 15 16  1  0  0  0  0
 16 11  2  0  0  0  0
 17  5  1  0  0  0  0
 18 17  1  0  0  0  0
M  END
>  <MODEL>
8

>  <REMARK>
 VINA RESULT:      -4.1      2.982      6.672
  Name = bgox31_5_ligand
  5 active torsions:
  status: ('A' for Active; 'I' for Inactive)
    1  A    between atoms: C_1  and  O_2
    2  A    between atoms: O_2  and  C_3
    3  A    between atoms: C_6  and  C_7
    4  A    between atoms: C_7  and  C_9
    5  A    between atoms: C_15  and  O_16
                            x       y       z     vdW  Elec       q    Type
                         _______ _______ _______ _____ _____    ______ ____

>  <TORSDO>
F 4

$$$$
bgox31_5_ligand
 OpenBabel10092621253D

 18 19  0  0  0  0  0  0  0  0999 V2000
   -5.0580    4.8870   -1.4780 C   0  0  0  0  0  0  0  0  0  0  0  0
   -4.1280    5.8280   -1.7920 C   0  0  0  0  0  3  0  0  0  0  0  0
   -4.3120    7.1560   -1.3540 C   0  0  0  0  0  3  0  0  0  0  0  0
   -5.4120    7.5560   -0.6230 C   0  0  0  0  0  0  0  0  0  0  0  0
   -6.3710    6.5940   -0.3120 C   0  0  0  0  0  0  0  0  0  0  0  0
   -6.1990    5.2520   -0.7480 C   0  0  0  0  0  3  0  0  0  0  0  0
   -3.3790    3.2860   -2.4510 C   0  0  0  0  0  1  0  0  0  0  0  0
   -4.7310    3.5880   -2.0050 O   0  0  0  0  0  0  0  0  0  0  0  0
   -5.5470    8.9370   -0.2260 C   0  0  0  0  0  0  0  0  0  0  0  0
   -6.3640    9.6490   -0.8210 O   0  0  0  0  0  0  0  0  0  0  0  0
   -4.6350    9.5170    0.8100 C   0  0  0  0  0  0  0  0  0  0  0  0
   -3.2590    9.6070    0.6800 C   0  0  0  0  0  3  0  0  0  0  0  0
   -2.4520   10.1690    1.7060 C   0  0  0  0  0  3  0  0  0  0  0  0
   -2.9880   10.6580    2.8590 C   0  0  0  0  0  3  0  0  0  0  0  0
   -4.3520   10.6100    3.0180 C   0  0  0  0  0  3  0  0  0  0  0  0
   -5.1440   10.0170    2.0060 C   0  0  0  0  0  3  0  0  0  0  0  0
   -7.4600    6.9470    0.4130 O   0  0  0  0  0  0  0  0  0  0  0  0
   -8.3410    6.5430    0.2140 H   0  0  0  0  0  0  0  0  0  0  0  0
  1  6  1  0  0  0  0
  2  1  2  0  0  0  0
  2  3  1  0  0  0  0
  3  4  2  0  0  0  0
  4  5  1  0  0  0  0
  4  9  1  0  0  0  0
  5 17  1  0  0  0  0
  6  5  2  0  0  0  0
  7  8  1  0  0  0  0
  8  1  1  0  0  0  0
  9 11  1  0  0  0  0
 10  9  2  0  0  0  0
 11 16  1  0  0  0  0
 12 11  2  0  0  0  0
 12 13  1  0  0  0  0
 13 14  2  0  0  0  0
 14 15  1  0  0  0  0
 16 15  2  0  0  0  0
 18 17  1  0  0  0  0
M  END
>  <MODEL>
9

>  <REMARK>
 VINA RESULT:      -4.1      4.129      5.996
  Name = bgox31_5_ligand
  5 active torsions:
  status: ('A' for Active; 'I' for Inactive)
    1  A    between atoms: C_1  and  O_2
    2  A    between atoms: O_2  and  C_3
    3  A    between atoms: C_6  and  C_7
    4  A    between atoms: C_7  and  C_9
    5  A    between atoms: C_15  and  O_16
                            x       y       z     vdW  Elec       q    Type
                         _______ _______ _______ _____ _____    ______ ____

>  <TORSDO>
F 4

$$$$
