orig_f12_ligand
     RDKit          3D

 44 44  0  0  0  0  0  0  0  0999 V2000
    9.2032   -7.9382   -0.5156 C   0  0  0  0  0  0  0  0  0  0  0  0
    8.1623   -6.9627   -0.0215 C   0  0  0  0  0  0  0  0  0  0  0  0
    7.4365   -6.2957   -1.1550 C   0  0  0  0  0  0  0  0  0  0  0  0
    6.4211   -5.3160   -0.6650 C   0  0  0  0  0  0  0  0  0  0  0  0
    5.6972   -4.5780   -1.7704 C   0  0  2  0  0  0  0  0  0  0  0  0
    4.7985   -3.4908   -1.2015 C   0  0  0  0  0  0  0  0  0  0  0  0
    3.3279   -3.8541   -1.1110 C   0  0  0  0  0  0  0  0  0  0  0  0
    4.9210   -5.5027   -2.4933 O   0  0  0  0  0  0  0  0  0  0  0  0
    5.1403   -5.6541   -3.7916 C   0  0  0  0  0  0  0  0  0  0  0  0
    6.1249   -5.2182   -4.3483 O   0  0  0  0  0  0  0  0  0  0  0  0
    4.0413   -6.3522   -4.4711 C   0  0  0  0  0  0  0  0  0  0  0  0
    3.8854   -6.1988   -5.7913 C   0  0  0  0  0  0  0  0  0  0  0  0
    2.7413   -6.7683   -6.5239 C   0  0  0  0  0  0  0  0  0  0  0  0
    1.8545   -7.6397   -5.9332 C   0  0  0  0  0  0  0  0  0  0  0  0
    0.7682   -8.1271   -6.6414 C   0  0  0  0  0  0  0  0  0  0  0  0
    0.5756   -7.7506   -7.9433 C   0  0  0  0  0  0  0  0  0  0  0  0
   -0.4858   -8.1853   -8.6844 O   0  0  0  0  0  0  0  0  0  0  0  0
   -1.2326   -9.3167   -8.2538 C   0  0  0  0  0  0  0  0  0  0  0  0
    1.4592   -6.8738   -8.5441 C   0  0  0  0  0  0  0  0  0  0  0  0
    2.5520   -6.3948   -7.8318 C   0  0  0  0  0  0  0  0  0  0  0  0
   10.2036   -7.5854   -0.2248 H   0  0  0  0  0  0  0  0  0  0  0  0
    9.0195   -8.9272   -0.0705 H   0  0  0  0  0  0  0  0  0  0  0  0
    9.1450   -8.0128   -1.6115 H   0  0  0  0  0  0  0  0  0  0  0  0
    7.4328   -7.5048    0.5980 H   0  0  0  0  0  0  0  0  0  0  0  0
    8.6753   -6.1828    0.5605 H   0  0  0  0  0  0  0  0  0  0  0  0
    8.1679   -5.7661   -1.7831 H   0  0  0  0  0  0  0  0  0  0  0  0
    6.9112   -7.0735   -1.7286 H   0  0  0  0  0  0  0  0  0  0  0  0
    5.6759   -5.8601   -0.0661 H   0  0  0  0  0  0  0  0  0  0  0  0
    6.9640   -4.5599   -0.0788 H   0  0  0  0  0  0  0  0  0  0  0  0
    6.4372   -4.0990   -2.4283 H   0  0  0  0  0  0  0  0  0  0  0  0
    5.1533   -3.2506   -0.1884 H   0  0  0  0  0  0  0  0  0  0  0  0
    4.8626   -2.6435   -1.9000 H   0  0  0  0  0  0  0  0  0  0  0  0
    3.2251   -4.8642   -0.6876 H   0  0  0  0  0  0  0  0  0  0  0  0
    2.8106   -3.1309   -0.4634 H   0  0  0  0  0  0  0  0  0  0  0  0
    2.8818   -3.8308   -2.1162 H   0  0  0  0  0  0  0  0  0  0  0  0
    3.3537   -6.9941   -3.9010 H   0  0  0  0  0  0  0  0  0  0  0  0
    4.6399   -5.6259   -6.3506 H   0  0  0  0  0  0  0  0  0  0  0  0
    2.0097   -7.9517   -4.8898 H   0  0  0  0  0  0  0  0  0  0  0  0
    0.0606   -8.8165   -6.1577 H   0  0  0  0  0  0  0  0  0  0  0  0
   -0.5435  -10.0993   -7.9037 H   0  0  0  0  0  0  0  0  0  0  0  0
   -1.9022   -9.0231   -7.4321 H   0  0  0  0  0  0  0  0  0  0  0  0
   -1.8298   -9.7029   -9.0932 H   0  0  0  0  0  0  0  0  0  0  0  0
    1.2975   -6.5556   -9.5847 H   0  0  0  0  0  0  0  0  0  0  0  0
    3.2673   -5.7145   -8.3170 H   0  0  0  0  0  0  0  0  0  0  0  0
  2  1  1  0
  3  2  1  0
  4  3  1  0
  5  4  1  0
  6  5  1  0
  7  6  1  0
  8  5  1  0
  9  8  1  0
 10  9  2  0
 11  9  1  0
 12 11  2  3
 13 12  1  0
 14 13  1  0
 15 14  2  0
 16 15  1  0
 17 16  1  0
 18 17  1  0
 19 16  2  0
 20 19  1  0
 20 13  2  0
  1 21  1  0
  1 22  1  0
  1 23  1  0
  2 24  1  0
  2 25  1  0
  3 26  1  0
  3 27  1  0
  4 28  1  0
  4 29  1  0
  5 30  1  6
  6 31  1  0
  6 32  1  0
  7 33  1  0
  7 34  1  0
  7 35  1  0
 11 36  1  0
 12 37  1  0
 14 38  1  0
 15 39  1  0
 18 40  1  0
 18 41  1  0
 18 42  1  0
 19 43  1  0
 20 44  1  0
M  END
$$$$
