orig_f12_ligand
 OpenBabel10092621033D

 20 20  0  0  1  0  0  0  0  0999 V2000
    9.3000   -4.8230   -0.9530 C   0  0  0  0  0  0  0  0  0  0  0  0
    8.5510   -4.2960   -0.1580 O   0  0  0  0  0  0  0  0  0  0  0  0
    8.8730   -5.7360   -2.0200 C   0  0  0  0  0  3  0  0  0  0  0  0
    9.3340   -6.9920   -2.0290 C   0  0  0  0  0  3  0  0  0  0  0  0
    9.0480   -7.9320   -3.1270 C   0  0  0  0  0  0  0  0  0  0  0  0
    7.7630   -8.2220   -3.5250 C   0  0  0  0  0  3  0  0  0  0  0  0
    7.5320   -9.0820   -4.5870 C   0  0  0  0  0  3  0  0  0  0  0  0
    8.5860   -9.6610   -5.2400 C   0  0  0  0  0  0  0  0  0  0  0  0
    9.8800   -9.3750   -4.8480 C   0  0  0  0  0  3  0  0  0  0  0  0
   10.1060   -8.5180   -3.7780 C   0  0  0  0  0  3  0  0  0  0  0  0
    8.4190  -10.5030   -6.3020 O   0  0  0  0  0  0  0  0  0  0  0  0
    7.6550  -10.0810   -7.4260 C   0  0  0  0  0  1  0  0  0  0  0  0
   10.6160   -4.6660   -0.9140 O   0  0  0  0  0  0  0  0  0  0  0  0
   11.2850   -4.7900    0.3180 C   0  0  1  0  0  3  0  0  0  0  0  0
   11.9640   -6.1490    0.3950 C   0  0  0  0  0  2  0  0  0  0  0  0
   12.8340   -6.5020   -0.7960 C   0  0  0  0  0  1  0  0  0  0  0  0
   12.2960   -3.6710    0.4330 C   0  0  0  0  0  2  0  0  0  0  0  0
   11.7860   -2.3440   -0.0280 C   0  0  0  0  0  2  0  0  0  0  0  0
   12.2850   -2.0260   -2.4520 C   0  0  0  0  0  1  0  0  0  0  0  0
   12.7040   -1.7120   -1.0360 C   0  0  0  0  0  2  0  0  0  0  0  0
  1 13  1  0  0  0  0
  1  2  2  0  0  0  0
  3  1  1  0  0  0  0
  4  3  2  0  0  0  0
  5  4  1  0  0  0  0
  6  5  1  0  0  0  0
  7  6  2  0  0  0  0
  8  9  2  0  0  0  0
  8  7  1  0  0  0  0
  9 10  1  0  0  0  0
 10  5  2  0  0  0  0
 11  8  1  0  0  0  0
 12 11  1  0  0  0  0
 13 14  1  0  0  0  0
 14 15  1  6  0  0  0
 14 17  1  0  0  0  0
 16 15  1  0  0  0  0
 18 17  1  0  0  0  0
 19 20  1  0  0  0  0
 20 18  1  0  0  0  0
M  END
>  <MODEL>
1

>  <REMARK>
 VINA RESULT:      -3.6      0.000      0.000
  Name = orig_f12_ligand
  12 active torsions:
  status: ('A' for Active; 'I' for Inactive)
    1  A    between atoms: C_1  and  C_2
    2  A    between atoms: C_2  and  C_3
    3  A    between atoms: C_3  and  C_4
    4  A    between atoms: C_4  and  C_5
    5  A    between atoms: C_5  and  C_6
    6  A    between atoms: C_5  and  O_8
    7  A    between atoms: C_6  and  C_7
    8  A    between atoms: O_8  and  C_9
    9  A    between atoms: C_9  and  C_11
   10  A    between atoms: C_12  and  C_13
   11  A    between atoms: C_16  and  O_17
   12  A    between atoms: O_17  and  C_18
                            x       y       z     vdW  Elec       q    Type
                         _______ _______ _______ _____ _____    ______ ____

>  <TORSDO>
F 9

$$$$
orig_f12_ligand
 OpenBabel10092621033D

 20 20  0  0  1  0  0  0  0  0999 V2000
    6.7200   -8.6020   -4.0000 C   0  0  0  0  0  0  0  0  0  0  0  0
    6.2550   -8.3910   -5.1000 O   0  0  0  0  0  0  0  0  0  0  0  0
    7.4240   -7.6020   -3.1890 C   0  0  0  0  0  3  0  0  0  0  0  0
    8.7470   -7.7080   -3.0220 C   0  0  0  0  0  3  0  0  0  0  0  0
    9.5070   -6.8160   -2.1290 C   0  0  0  0  0  0  0  0  0  0  0  0
    9.0370   -5.5750   -1.7630 C   0  0  0  0  0  3  0  0  0  0  0  0
    9.7600   -4.7770   -0.8910 C   0  0  0  0  0  3  0  0  0  0  0  0
   10.9580   -5.2180   -0.3950 C   0  0  0  0  0  0  0  0  0  0  0  0
   11.4360   -6.4640   -0.7540 C   0  0  0  0  0  3  0  0  0  0  0  0
   10.7110   -7.2560   -1.6360 C   0  0  0  0  0  3  0  0  0  0  0  0
   11.7050   -4.4830    0.4810 O   0  0  0  0  0  0  0  0  0  0  0  0
   11.0730   -3.5150    1.3110 C   0  0  0  0  0  1  0  0  0  0  0  0
    6.6840   -9.7940   -3.4200 O   0  0  0  0  0  0  0  0  0  0  0  0
    6.0200   -9.9360   -2.1880 C   0  0  1  0  0  3  0  0  0  0  0  0
    4.6500  -10.5570   -2.4140 C   0  0  0  0  0  2  0  0  0  0  0  0
    3.5930  -10.1730   -1.3970 C   0  0  0  0  0  1  0  0  0  0  0  0
    6.8660  -10.8050   -1.2820 C   0  0  0  0  0  2  0  0  0  0  0  0
    7.5910  -10.0460   -0.2190 C   0  0  0  0  0  2  0  0  0  0  0  0
    9.4650  -11.0790   -1.5030 C   0  0  0  0  0  1  0  0  0  0  0  0
    9.0780  -10.2420   -0.3070 C   0  0  0  0  0  2  0  0  0  0  0  0
  1 13  1  0  0  0  0
  1  3  1  0  0  0  0
  2  1  2  0  0  0  0
  3  4  2  0  0  0  0
  4  5  1  0  0  0  0
  5  6  2  0  0  0  0
  5 10  1  0  0  0  0
  6  7  1  0  0  0  0
  7  8  2  0  0  0  0
  8 11  1  0  0  0  0
  9  8  1  0  0  0  0
 10  9  2  0  0  0  0
 11 12  1  0  0  0  0
 13 14  1  0  0  0  0
 14 15  1  6  0  0  0
 14 17  1  0  0  0  0
 15 16  1  0  0  0  0
 17 18  1  0  0  0  0
 19 20  1  0  0  0  0
 20 18  1  0  0  0  0
M  END
>  <MODEL>
2

>  <REMARK>
 VINA RESULT:      -3.5      2.606      7.315
  Name = orig_f12_ligand
  12 active torsions:
  status: ('A' for Active; 'I' for Inactive)
    1  A    between atoms: C_1  and  C_2
    2  A    between atoms: C_2  and  C_3
    3  A    between atoms: C_3  and  C_4
    4  A    between atoms: C_4  and  C_5
    5  A    between atoms: C_5  and  C_6
    6  A    between atoms: C_5  and  O_8
    7  A    between atoms: C_6  and  C_7
    8  A    between atoms: O_8  and  C_9
    9  A    between atoms: C_9  and  C_11
   10  A    between atoms: C_12  and  C_13
   11  A    between atoms: C_16  and  O_17
   12  A    between atoms: O_17  and  C_18
                            x       y       z     vdW  Elec       q    Type
                         _______ _______ _______ _____ _____    ______ ____

>  <TORSDO>
F 9

$$$$
orig_f12_ligand
 OpenBabel10092621033D

 20 20  0  0  1  0  0  0  0  0999 V2000
   -3.1270    1.5240   -0.8710 C   0  0  0  0  0  0  0  0  0  0  0  0
   -2.5280    1.3890    0.1750 O   0  0  0  0  0  0  0  0  0  0  0  0
   -2.7470    0.8850   -2.1370 C   0  0  0  0  0  3  0  0  0  0  0  0
   -2.4130    1.6500   -3.1820 C   0  0  0  0  0  3  0  0  0  0  0  0
   -2.1360    1.0900   -4.5160 C   0  0  0  0  0  0  0  0  0  0  0  0
   -2.1940   -0.2620   -4.7680 C   0  0  0  0  0  3  0  0  0  0  0  0
   -1.9640   -0.7520   -6.0440 C   0  0  0  0  0  3  0  0  0  0  0  0
   -1.6640    0.1110   -7.0630 C   0  0  0  0  0  0  0  0  0  0  0  0
   -1.6060    1.4700   -6.8210 C   0  0  0  0  0  3  0  0  0  0  0  0
   -1.8300    1.9550   -5.5380 C   0  0  0  0  0  3  0  0  0  0  0  0
   -1.4460   -0.3120   -8.3430 O   0  0  0  0  0  0  0  0  0  0  0  0
   -0.3040   -1.1080   -8.6400 C   0  0  0  0  0  1  0  0  0  0  0  0
   -4.1810    2.3180   -0.9980 O   0  0  0  0  0  0  0  0  0  0  0  0
   -5.4480    1.7450   -1.2150 C   0  0  1  0  0  3  0  0  0  0  0  0
   -6.1640    1.5730    0.1160 C   0  0  0  0  0  2  0  0  0  0  0  0
   -7.1230    0.4000    0.1840 C   0  0  0  0  0  1  0  0  0  0  0  0
   -6.2340    2.6480   -2.1410 C   0  0  0  0  0  2  0  0  0  0  0  0
   -5.9060    2.4660   -3.5860 C   0  0  0  0  0  2  0  0  0  0  0  0
   -5.7030    0.8450   -5.4730 C   0  0  0  0  0  1  0  0  0  0  0  0
   -5.9920    1.0240   -4.0020 C   0  0  0  0  0  2  0  0  0  0  0  0
  1  2  2  0  0  0  0
  3  1  1  0  0  0  0
  4  3  2  0  0  0  0
  5  4  1  0  0  0  0
  6  5  1  0  0  0  0
  7  6  2  0  0  0  0
  8  9  2  0  0  0  0
  8  7  1  0  0  0  0
  9 10  1  0  0  0  0
 10  5  2  0  0  0  0
 11  8  1  0  0  0  0
 12 11  1  0  0  0  0
 13  1  1  0  0  0  0
 14 17  1  6  0  0  0
 14 13  1  0  0  0  0
 14 15  1  0  0  0  0
 15 16  1  0  0  0  0
 18 17  1  0  0  0  0
 19 20  1  0  0  0  0
 20 18  1  0  0  0  0
M  END
>  <MODEL>
3

>  <REMARK>
 VINA RESULT:      -3.5     14.560     16.146
  Name = orig_f12_ligand
  12 active torsions:
  status: ('A' for Active; 'I' for Inactive)
    1  A    between atoms: C_1  and  C_2
    2  A    between atoms: C_2  and  C_3
    3  A    between atoms: C_3  and  C_4
    4  A    between atoms: C_4  and  C_5
    5  A    between atoms: C_5  and  C_6
    6  A    between atoms: C_5  and  O_8
    7  A    between atoms: C_6  and  C_7
    8  A    between atoms: O_8  and  C_9
    9  A    between atoms: C_9  and  C_11
   10  A    between atoms: C_12  and  C_13
   11  A    between atoms: C_16  and  O_17
   12  A    between atoms: O_17  and  C_18
                            x       y       z     vdW  Elec       q    Type
                         _______ _______ _______ _____ _____    ______ ____

>  <TORSDO>
F 9

$$$$
orig_f12_ligand
 OpenBabel10092621033D

 20 20  0  0  1  0  0  0  0  0999 V2000
   -3.4430    1.0660   -1.0790 C   0  0  0  0  0  0  0  0  0  0  0  0
   -2.9480    1.4530   -0.0430 O   0  0  0  0  0  0  0  0  0  0  0  0
   -2.6810    0.6830   -2.2740 C   0  0  0  0  0  3  0  0  0  0  0  0
   -2.6920    1.4880   -3.3430 C   0  0  0  0  0  3  0  0  0  0  0  0
   -2.0520    1.1190   -4.6180 C   0  0  0  0  0  0  0  0  0  0  0  0
   -1.9620   -0.1880   -5.0390 C   0  0  0  0  0  3  0  0  0  0  0  0
   -1.3870   -0.4960   -6.2620 C   0  0  0  0  0  3  0  0  0  0  0  0
   -0.8910    0.5040   -7.0550 C   0  0  0  0  0  0  0  0  0  0  0  0
   -0.9790    1.8190   -6.6410 C   0  0  0  0  0  3  0  0  0  0  0  0
   -1.5490    2.1220   -5.4100 C   0  0  0  0  0  3  0  0  0  0  0  0
   -0.3290    0.2620   -8.2760 O   0  0  0  0  0  0  0  0  0  0  0  0
   -0.2350   -1.0730   -8.7600 C   0  0  0  0  0  1  0  0  0  0  0  0
   -4.7540    0.9900   -1.2660 O   0  0  0  0  0  0  0  0  0  0  0  0
   -5.4460   -0.1480   -0.8140 C   0  0  1  0  0  3  0  0  0  0  0  0
   -6.6440    0.2800    0.0200 C   0  0  0  0  0  2  0  0  0  0  0  0
   -6.6950    1.7580    0.3600 C   0  0  0  0  0  1  0  0  0  0  0  0
   -5.8830   -0.9560   -2.0160 C   0  0  0  0  0  2  0  0  0  0  0  0
   -6.2900   -0.1250   -3.1890 C   0  0  0  0  0  2  0  0  0  0  0  0
   -5.6140    0.4840   -5.5120 C   0  0  0  0  0  1  0  0  0  0  0  0
   -5.6450   -0.5980   -4.4610 C   0  0  0  0  0  2  0  0  0  0  0  0
  1  2  2  0  0  0  0
  3  1  1  0  0  0  0
  4  3  2  0  0  0  0
  5  4  1  0  0  0  0
  6  5  1  0  0  0  0
  7  6  2  0  0  0  0
  8  9  2  0  0  0  0
  8  7  1  0  0  0  0
  9 10  1  0  0  0  0
 10  5  2  0  0  0  0
 11  8  1  0  0  0  0
 12 11  1  0  0  0  0
 13  1  1  0  0  0  0
 13 14  1  0  0  0  0
 14 17  1  6  0  0  0
 14 15  1  0  0  0  0
 15 16  1  0  0  0  0
 18 17  1  0  0  0  0
 19 20  1  0  0  0  0
 20 18  1  0  0  0  0
M  END
>  <MODEL>
4

>  <REMARK>
 VINA RESULT:      -3.5     14.242     15.964
  Name = orig_f12_ligand
  12 active torsions:
  status: ('A' for Active; 'I' for Inactive)
    1  A    between atoms: C_1  and  C_2
    2  A    between atoms: C_2  and  C_3
    3  A    between atoms: C_3  and  C_4
    4  A    between atoms: C_4  and  C_5
    5  A    between atoms: C_5  and  C_6
    6  A    between atoms: C_5  and  O_8
    7  A    between atoms: C_6  and  C_7
    8  A    between atoms: O_8  and  C_9
    9  A    between atoms: C_9  and  C_11
   10  A    between atoms: C_12  and  C_13
   11  A    between atoms: C_16  and  O_17
   12  A    between atoms: O_17  and  C_18
                            x       y       z     vdW  Elec       q    Type
                         _______ _______ _______ _____ _____    ______ ____

>  <TORSDO>
F 9

$$$$
orig_f12_ligand
 OpenBabel10092621033D

 20 20  0  0  1  0  0  0  0  0999 V2000
    9.4890   -4.9070   -0.7650 C   0  0  0  0  0  0  0  0  0  0  0  0
    8.4810   -4.3660   -0.3630 O   0  0  0  0  0  0  0  0  0  0  0  0
    9.5550   -5.7710   -1.9500 C   0  0  0  0  0  3  0  0  0  0  0  0
    8.7270   -6.8180   -2.0440 C   0  0  0  0  0  3  0  0  0  0  0  0
    8.8100   -7.7980   -3.1410 C   0  0  0  0  0  0  0  0  0  0  0  0
   10.0160   -8.2390   -3.6360 C   0  0  0  0  0  3  0  0  0  0  0  0
   10.0580   -9.1900   -4.6430 C   0  0  0  0  0  3  0  0  0  0  0  0
    8.8940   -9.6880   -5.1620 C   0  0  0  0  0  0  0  0  0  0  0  0
    7.6790   -9.2530   -4.6690 C   0  0  0  0  0  3  0  0  0  0  0  0
    7.6420   -8.2930   -3.6650 C   0  0  0  0  0  3  0  0  0  0  0  0
    8.8740  -10.6380   -6.1430 O   0  0  0  0  0  0  0  0  0  0  0  0
    8.8350  -10.2440   -7.5090 C   0  0  0  0  0  1  0  0  0  0  0  0
   10.6540   -4.8150   -0.1380 O   0  0  0  0  0  0  0  0  0  0  0  0
   11.8020   -5.3610   -0.7400 C   0  0  1  0  0  3  0  0  0  0  0  0
   12.9360   -4.3500   -0.6880 C   0  0  0  0  0  2  0  0  0  0  0  0
   12.5240   -2.9390   -0.3120 C   0  0  0  0  0  1  0  0  0  0  0  0
   12.1730   -6.6320   -0.0070 C   0  0  0  0  0  2  0  0  0  0  0  0
   13.0860   -7.5300   -0.7750 C   0  0  0  0  0  2  0  0  0  0  0  0
   11.1860   -9.0500   -0.2200 C   0  0  0  0  0  1  0  0  0  0  0  0
   12.5250   -8.9180   -0.9050 C   0  0  0  0  0  2  0  0  0  0  0  0
  1  2  2  0  0  0  0
  1 13  1  0  0  0  0
  3  1  1  0  0  0  0
  4  3  2  0  0  0  0
  5  4  1  0  0  0  0
  6  5  1  0  0  0  0
  7  6  2  0  0  0  0
  8  9  2  0  0  0  0
  8  7  1  0  0  0  0
  9 10  1  0  0  0  0
 10  5  2  0  0  0  0
 11  8  1  0  0  0  0
 12 11  1  0  0  0  0
 14 15  1  1  0  0  0
 14 13  1  0  0  0  0
 14 17  1  0  0  0  0
 15 16  1  0  0  0  0
 18 17  1  0  0  0  0
 20 18  1  0  0  0  0
 20 19  1  0  0  0  0
M  END
>  <MODEL>
5

>  <REMARK>
 VINA RESULT:      -3.4      1.130      3.096
  Name = orig_f12_ligand
  12 active torsions:
  status: ('A' for Active; 'I' for Inactive)
    1  A    between atoms: C_1  and  C_2
    2  A    between atoms: C_2  and  C_3
    3  A    between atoms: C_3  and  C_4
    4  A    between atoms: C_4  and  C_5
    5  A    between atoms: C_5  and  C_6
    6  A    between atoms: C_5  and  O_8
    7  A    between atoms: C_6  and  C_7
    8  A    between atoms: O_8  and  C_9
    9  A    between atoms: C_9  and  C_11
   10  A    between atoms: C_12  and  C_13
   11  A    between atoms: C_16  and  O_17
   12  A    between atoms: O_17  and  C_18
                            x       y       z     vdW  Elec       q    Type
                         _______ _______ _______ _____ _____    ______ ____

>  <TORSDO>
F 9

$$$$
orig_f12_ligand
 OpenBabel10092621033D

 20 20  0  0  1  0  0  0  0  0999 V2000
   -4.7000    0.2420   -3.1000 C   0  0  0  0  0  0  0  0  0  0  0  0
   -5.7240   -0.4070   -3.0940 O   0  0  0  0  0  0  0  0  0  0  0  0
   -3.6910    0.1970   -4.1650 C   0  0  0  0  0  3  0  0  0  0  0  0
   -2.6180    0.9920   -4.0850 C   0  0  0  0  0  3  0  0  0  0  0  0
   -1.6240    1.0920   -5.1680 C   0  0  0  0  0  0  0  0  0  0  0  0
   -1.2480    0.0000   -5.9180 C   0  0  0  0  0  3  0  0  0  0  0  0
   -0.3380    0.1370   -6.9530 C   0  0  0  0  0  3  0  0  0  0  0  0
    0.2050    1.3630   -7.2290 C   0  0  0  0  0  0  0  0  0  0  0  0
   -0.1670    2.4650   -6.4820 C   0  0  0  0  0  3  0  0  0  0  0  0
   -1.0750    2.3210   -5.4400 C   0  0  0  0  0  3  0  0  0  0  0  0
    1.0940    1.5610   -8.2470 O   0  0  0  0  0  0  0  0  0  0  0  0
    0.8290    2.5510   -9.2340 C   0  0  0  0  0  1  0  0  0  0  0  0
   -4.3510    1.0440   -2.1030 O   0  0  0  0  0  0  0  0  0  0  0  0
   -5.3080    1.9220   -1.5620 C   0  0  1  0  0  3  0  0  0  0  0  0
   -5.1290    2.0070   -0.0540 C   0  0  0  0  0  2  0  0  0  0  0  0
   -3.9310    1.2550    0.4950 C   0  0  0  0  0  1  0  0  0  0  0  0
   -5.1350    3.2800   -2.2070 C   0  0  0  0  0  2  0  0  0  0  0  0
   -3.8070    3.9100   -1.9460 C   0  0  0  0  0  2  0  0  0  0  0  0
   -4.1380    4.3560   -4.3780 C   0  0  0  0  0  1  0  0  0  0  0  0
   -3.2230    4.5210   -3.1890 C   0  0  0  0  0  2  0  0  0  0  0  0
  1  2  2  0  0  0  0
  1 13  1  0  0  0  0
  3  4  2  0  0  0  0
  3  1  1  0  0  0  0
  5  4  1  0  0  0  0
  6  5  2  0  0  0  0
  7  6  1  0  0  0  0
  8  7  2  0  0  0  0
  8  9  1  0  0  0  0
  9 10  2  0  0  0  0
 10  5  1  0  0  0  0
 11  8  1  0  0  0  0
 12 11  1  0  0  0  0
 13 14  1  0  0  0  0
 14 17  1  6  0  0  0
 14 15  1  0  0  0  0
 15 16  1  0  0  0  0
 17 18  1  0  0  0  0
 19 20  1  0  0  0  0
 20 18  1  0  0  0  0
M  END
>  <MODEL>
6

>  <REMARK>
 VINA RESULT:      -3.4     14.326     15.821
  Name = orig_f12_ligand
  12 active torsions:
  status: ('A' for Active; 'I' for Inactive)
    1  A    between atoms: C_1  and  C_2
    2  A    between atoms: C_2  and  C_3
    3  A    between atoms: C_3  and  C_4
    4  A    between atoms: C_4  and  C_5
    5  A    between atoms: C_5  and  C_6
    6  A    between atoms: C_5  and  O_8
    7  A    between atoms: C_6  and  C_7
    8  A    between atoms: O_8  and  C_9
    9  A    between atoms: C_9  and  C_11
   10  A    between atoms: C_12  and  C_13
   11  A    between atoms: C_16  and  O_17
   12  A    between atoms: O_17  and  C_18
                            x       y       z     vdW  Elec       q    Type
                         _______ _______ _______ _____ _____    ______ ____

>  <TORSDO>
F 9

$$$$
orig_f12_ligand
 OpenBabel10092621033D

 20 20  0  0  1  0  0  0  0  0999 V2000
   -3.9090    3.5200   -1.9410 C   0  0  0  0  0  0  0  0  0  0  0  0
   -3.6100    4.6420   -1.5900 O   0  0  0  0  0  0  0  0  0  0  0  0
   -3.0410    2.6350   -2.7260 C   0  0  0  0  0  3  0  0  0  0  0  0
   -2.7360    2.9660   -3.9870 C   0  0  0  0  0  3  0  0  0  0  0  0
   -1.9720    2.0750   -4.8760 C   0  0  0  0  0  0  0  0  0  0  0  0
   -0.9400    2.5370   -5.6620 C   0  0  0  0  0  3  0  0  0  0  0  0
   -0.2170    1.6640   -6.4590 C   0  0  0  0  0  3  0  0  0  0  0  0
   -0.5350    0.3330   -6.4790 C   0  0  0  0  0  0  0  0  0  0  0  0
   -1.5680   -0.1400   -5.6920 C   0  0  0  0  0  3  0  0  0  0  0  0
   -2.2950    0.7400   -4.9000 C   0  0  0  0  0  3  0  0  0  0  0  0
    0.1530   -0.5750   -7.2320 O   0  0  0  0  0  0  0  0  0  0  0  0
   -0.5530   -1.5930   -7.9320 C   0  0  0  0  0  1  0  0  0  0  0  0
   -5.0930    2.9800   -1.6900 O   0  0  0  0  0  0  0  0  0  0  0  0
   -5.1790    1.5940   -1.4560 C   0  0  1  0  0  3  0  0  0  0  0  0
   -5.1930    1.3290    0.0410 C   0  0  0  0  0  2  0  0  0  0  0  0
   -3.8260    1.2670    0.6960 C   0  0  0  0  0  1  0  0  0  0  0  0
   -6.4390    1.0720   -2.1110 C   0  0  0  0  0  2  0  0  0  0  0  0
   -6.6330    1.5460   -3.5140 C   0  0  0  0  0  2  0  0  0  0  0  0
   -5.8080    1.2950   -5.8560 C   0  0  0  0  0  1  0  0  0  0  0  0
   -5.9740    0.6330   -4.5090 C   0  0  0  0  0  2  0  0  0  0  0  0
  1 13  1  0  0  0  0
  1  2  2  0  0  0  0
  3  1  1  0  0  0  0
  4  3  2  0  0  0  0
  5  4  1  0  0  0  0
  6  5  2  0  0  0  0
  7  6  1  0  0  0  0
  8  7  2  0  0  0  0
  8  9  1  0  0  0  0
  9 10  2  0  0  0  0
 10  5  1  0  0  0  0
 11  8  1  0  0  0  0
 12 11  1  0  0  0  0
 13 14  1  0  0  0  0
 14 17  1  1  0  0  0
 14 15  1  0  0  0  0
 15 16  1  0  0  0  0
 18 17  1  0  0  0  0
 19 20  1  0  0  0  0
 20 18  1  0  0  0  0
M  END
>  <MODEL>
7

>  <REMARK>
 VINA RESULT:      -3.4     14.560     16.217
  Name = orig_f12_ligand
  12 active torsions:
  status: ('A' for Active; 'I' for Inactive)
    1  A    between atoms: C_1  and  C_2
    2  A    between atoms: C_2  and  C_3
    3  A    between atoms: C_3  and  C_4
    4  A    between atoms: C_4  and  C_5
    5  A    between atoms: C_5  and  C_6
    6  A    between atoms: C_5  and  O_8
    7  A    between atoms: C_6  and  C_7
    8  A    between atoms: O_8  and  C_9
    9  A    between atoms: C_9  and  C_11
   10  A    between atoms: C_12  and  C_13
   11  A    between atoms: C_16  and  O_17
   12  A    between atoms: O_17  and  C_18
                            x       y       z     vdW  Elec       q    Type
                         _______ _______ _______ _____ _____    ______ ____

>  <TORSDO>
F 9

$$$$
orig_f12_ligand
 OpenBabel10092621033D

 20 20  0  0  1  0  0  0  0  0999 V2000
   -2.5320    2.2330   -3.6050 C   0  0  0  0  0  0  0  0  0  0  0  0
   -1.5730    2.7540   -4.1310 O   0  0  0  0  0  0  0  0  0  0  0  0
   -3.0240    0.8850   -3.9180 C   0  0  0  0  0  3  0  0  0  0  0  0
   -3.2500    0.5510   -5.1930 C   0  0  0  0  0  3  0  0  0  0  0  0
   -3.8540   -0.7360   -5.5790 C   0  0  0  0  0  0  0  0  0  0  0  0
   -5.1900   -1.0040   -5.3840 C   0  0  0  0  0  3  0  0  0  0  0  0
   -5.7330   -2.2110   -5.7940 C   0  0  0  0  0  3  0  0  0  0  0  0
   -4.9370   -3.1540   -6.3860 C   0  0  0  0  0  0  0  0  0  0  0  0
   -3.5940   -2.8930   -6.5870 C   0  0  0  0  0  3  0  0  0  0  0  0
   -3.0530   -1.6840   -6.1670 C   0  0  0  0  0  3  0  0  0  0  0  0
   -5.4200   -4.3530   -6.8240 O   0  0  0  0  0  0  0  0  0  0  0  0
   -6.0250   -5.2520   -5.9020 C   0  0  0  0  0  1  0  0  0  0  0  0
   -3.2860    2.8540   -2.7070 O   0  0  0  0  0  0  0  0  0  0  0  0
   -4.0170    2.0890   -1.7790 C   0  0  1  0  0  3  0  0  0  0  0  0
   -3.4780    2.3330   -0.3780 C   0  0  0  0  0  2  0  0  0  0  0  0
   -3.7710    1.2340    0.6250 C   0  0  0  0  0  1  0  0  0  0  0  0
   -5.4760    2.4800   -1.8760 C   0  0  0  0  0  2  0  0  0  0  0  0
   -6.3400    1.4420   -2.5140 C   0  0  0  0  0  2  0  0  0  0  0  0
   -6.0000   -0.9420   -1.8590 C   0  0  0  0  0  1  0  0  0  0  0  0
   -6.7120    0.3530   -1.5480 C   0  0  0  0  0  2  0  0  0  0  0  0
  1 13  1  0  0  0  0
  2  1  2  0  0  0  0
  3  1  1  0  0  0  0
  4  3  2  0  0  0  0
  5  6  1  0  0  0  0
  5  4  1  0  0  0  0
  7  6  2  0  0  0  0
  8  7  1  0  0  0  0
  9  8  2  0  0  0  0
  9 10  1  0  0  0  0
 10  5  2  0  0  0  0
 11  8  1  0  0  0  0
 11 12  1  0  0  0  0
 13 14  1  0  0  0  0
 14 17  1  1  0  0  0
 14 15  1  0  0  0  0
 15 16  1  0  0  0  0
 18 17  1  0  0  0  0
 18 20  1  0  0  0  0
 19 20  1  0  0  0  0
M  END
>  <MODEL>
8

>  <REMARK>
 VINA RESULT:      -3.3     14.801     16.102
  Name = orig_f12_ligand
  12 active torsions:
  status: ('A' for Active; 'I' for Inactive)
    1  A    between atoms: C_1  and  C_2
    2  A    between atoms: C_2  and  C_3
    3  A    between atoms: C_3  and  C_4
    4  A    between atoms: C_4  and  C_5
    5  A    between atoms: C_5  and  C_6
    6  A    between atoms: C_5  and  O_8
    7  A    between atoms: C_6  and  C_7
    8  A    between atoms: O_8  and  C_9
    9  A    between atoms: C_9  and  C_11
   10  A    between atoms: C_12  and  C_13
   11  A    between atoms: C_16  and  O_17
   12  A    between atoms: O_17  and  C_18
                            x       y       z     vdW  Elec       q    Type
                         _______ _______ _______ _____ _____    ______ ____

>  <TORSDO>
F 9

$$$$
orig_f12_ligand
 OpenBabel10092621033D

 20 20  0  0  1  0  0  0  0  0999 V2000
   -2.4190    2.4970   -4.0290 C   0  0  0  0  0  0  0  0  0  0  0  0
   -1.9430    3.5970   -3.8530 O   0  0  0  0  0  0  0  0  0  0  0  0
   -2.1760    1.6640   -5.2130 C   0  0  0  0  0  3  0  0  0  0  0  0
   -1.9780    0.3490   -5.0590 C   0  0  0  0  0  3  0  0  0  0  0  0
   -1.6110   -0.5320   -6.1810 C   0  0  0  0  0  0  0  0  0  0  0  0
   -0.3970   -0.4320   -6.8230 C   0  0  0  0  0  3  0  0  0  0  0  0
   -0.0690   -1.3020   -7.8500 C   0  0  0  0  0  3  0  0  0  0  0  0
   -0.9610   -2.2630   -8.2420 C   0  0  0  0  0  0  0  0  0  0  0  0
   -2.1810   -2.3730   -7.6020 C   0  0  0  0  0  3  0  0  0  0  0  0
   -2.5080   -1.4930   -6.5780 C   0  0  0  0  0  3  0  0  0  0  0  0
   -0.6860   -3.1590   -9.2360 O   0  0  0  0  0  0  0  0  0  0  0  0
    0.5060   -3.0230  -10.0010 C   0  0  0  0  0  1  0  0  0  0  0  0
   -3.2660    1.9350   -3.1770 O   0  0  0  0  0  0  0  0  0  0  0  0
   -4.5710    2.4500   -3.0670 C   0  0  1  0  0  3  0  0  0  0  0  0
   -5.5750    1.3970   -3.5090 C   0  0  0  0  0  2  0  0  0  0  0  0
   -5.1800   -0.0360   -3.2060 C   0  0  0  0  0  1  0  0  0  0  0  0
   -4.8090    2.8570   -1.6290 C   0  0  0  0  0  2  0  0  0  0  0  0
   -3.7850    2.3360   -0.6750 C   0  0  0  0  0  2  0  0  0  0  0  0
   -5.8530    1.3380    0.3030 C   0  0  0  0  0  1  0  0  0  0  0  0
   -4.3470    1.2660    0.2180 C   0  0  0  0  0  2  0  0  0  0  0  0
  1  2  2  0  0  0  0
  1 13  1  0  0  0  0
  3  4  2  0  0  0  0
  3  1  1  0  0  0  0
  5  4  1  0  0  0  0
  6  5  2  0  0  0  0
  7  6  1  0  0  0  0
  8  7  2  0  0  0  0
  8  9  1  0  0  0  0
  9 10  2  0  0  0  0
 10  5  1  0  0  0  0
 11  8  1  0  0  0  0
 12 11  1  0  0  0  0
 13 14  1  0  0  0  0
 14 15  1  1  0  0  0
 14 17  1  0  0  0  0
 15 16  1  0  0  0  0
 17 18  1  0  0  0  0
 18 20  1  0  0  0  0
 20 19  1  0  0  0  0
M  END
>  <MODEL>
9

>  <REMARK>
 VINA RESULT:      -3.3     13.699     15.162
  Name = orig_f12_ligand
  12 active torsions:
  status: ('A' for Active; 'I' for Inactive)
    1  A    between atoms: C_1  and  C_2
    2  A    between atoms: C_2  and  C_3
    3  A    between atoms: C_3  and  C_4
    4  A    between atoms: C_4  and  C_5
    5  A    between atoms: C_5  and  C_6
    6  A    between atoms: C_5  and  O_8
    7  A    between atoms: C_6  and  C_7
    8  A    between atoms: O_8  and  C_9
    9  A    between atoms: C_9  and  C_11
   10  A    between atoms: C_12  and  C_13
   11  A    between atoms: C_16  and  O_17
   12  A    between atoms: O_17  and  C_18
                            x       y       z     vdW  Elec       q    Type
                         _______ _______ _______ _____ _____    ______ ____

>  <TORSDO>
F 9

$$$$
