ox2_shuffle_ligand
 OpenBabel10092621213D

 18 19  0  0  0  0  0  0  0  0999 V2000
   -1.7430   -6.9960    0.6060 C   0  0  0  0  0  0  0  0  0  0  0  0
   -1.0580   -8.2010    0.5900 C   0  0  0  0  0  3  0  0  0  0  0  0
    0.2730   -8.2450    0.2330 C   0  0  0  0  0  3  0  0  0  0  0  0
    0.9420   -7.0800   -0.1220 C   0  0  0  0  0  0  0  0  0  0  0  0
    0.2510   -5.8600   -0.1170 C   0  0  0  0  0  0  0  0  0  0  0  0
   -1.0880   -5.8320    0.2510 C   0  0  0  0  0  3  0  0  0  0  0  0
   -3.4120   -7.0930    2.3360 C   0  0  0  0  0  1  0  0  0  0  0  0
   -3.0640   -7.0250    0.9770 O   0  0  0  0  0  0  0  0  0  0  0  0
    2.3950   -7.1250   -0.5150 C   0  0  0  0  0  0  0  0  0  0  0  0
    2.7020   -7.4760   -1.6320 O   0  0  0  0  0  0  0  0  0  0  0  0
    3.4420   -6.7580    0.4620 C   0  0  0  0  0  0  0  0  0  0  0  0
    4.2930   -5.6860    0.2210 C   0  0  0  0  0  3  0  0  0  0  0  0
    5.2780   -5.3660    1.1430 C   0  0  0  0  0  3  0  0  0  0  0  0
    5.4090   -6.1120    2.3120 C   0  0  0  0  0  3  0  0  0  0  0  0
    4.5680   -7.1930    2.5480 C   0  0  0  0  0  3  0  0  0  0  0  0
    3.5860   -7.5300    1.6130 C   0  0  0  0  0  3  0  0  0  0  0  0
    0.8990   -4.7140   -0.4670 O   0  0  0  0  0  0  0  0  0  0  0  0
    0.7990   -4.3480   -1.3810 H   0  0  0  0  0  0  0  0  0  0  0  0
  1  8  1  0  0  0  0
  2  1  1  0  0  0  0
  3  2  2  0  0  0  0
  4  5  2  0  0  0  0
  4  3  1  0  0  0  0
  5  6  1  0  0  0  0
  6  1  2  0  0  0  0
  8  7  1  0  0  0  0
  9  4  1  0  0  0  0
  9 11  1  0  0  0  0
 10  9  2  0  0  0  0
 11 16  1  0  0  0  0
 12 11  2  0  0  0  0
 12 13  1  0  0  0  0
 13 14  2  0  0  0  0
 14 15  1  0  0  0  0
 16 15  2  0  0  0  0
 17  5  1  0  0  0  0
 18 17  1  0  0  0  0
M  END
>  <MODEL>
1

>  <REMARK>
 VINA RESULT:      -5.5      0.000      0.000
  Name = ox2_shuffle_ligand
  5 active torsions:
  status: ('A' for Active; 'I' for Inactive)
    1  A    between atoms: C_1  and  O_2
    2  A    between atoms: O_2  and  C_3
    3  A    between atoms: C_6  and  C_7
    4  A    between atoms: C_7  and  C_9
    5  A    between atoms: C_15  and  O_16
                            x       y       z     vdW  Elec       q    Type
                         _______ _______ _______ _____ _____    ______ ____

>  <TORSDO>
F 4

$$$$
ox2_shuffle_ligand
 OpenBabel10092621213D

 18 19  0  0  0  0  0  0  0  0999 V2000
    1.0790   -7.1970    0.5830 C   0  0  0  0  0  0  0  0  0  0  0  0
    1.7260   -8.4190    0.6840 C   0  0  0  0  0  3  0  0  0  0  0  0
    3.0540   -8.5390    0.3320 C   0  0  0  0  0  3  0  0  0  0  0  0
    3.7580   -7.4370   -0.1360 C   0  0  0  0  0  0  0  0  0  0  0  0
    3.1050   -6.2010   -0.2510 C   0  0  0  0  0  0  0  0  0  0  0  0
    1.7690   -6.0950    0.1150 C   0  0  0  0  0  3  0  0  0  0  0  0
   -1.0930   -6.1790    0.4030 C   0  0  0  0  0  1  0  0  0  0  0  0
   -0.2410   -7.1480    0.9560 O   0  0  0  0  0  0  0  0  0  0  0  0
    5.2070   -7.5660   -0.5240 C   0  0  0  0  0  0  0  0  0  0  0  0
    5.5070   -7.6650   -1.6930 O   0  0  0  0  0  0  0  0  0  0  0  0
    6.2570   -7.5880    0.5160 C   0  0  0  0  0  0  0  0  0  0  0  0
    6.0590   -6.9570    1.7380 C   0  0  0  0  0  3  0  0  0  0  0  0
    7.0610   -6.9770    2.6960 C   0  0  0  0  0  3  0  0  0  0  0  0
    8.2600   -7.6370    2.4370 C   0  0  0  0  0  3  0  0  0  0  0  0
    8.4650   -8.2570    1.2100 C   0  0  0  0  0  3  0  0  0  0  0  0
    7.4660   -8.2240    0.2360 C   0  0  0  0  0  3  0  0  0  0  0  0
    3.7870   -5.1160   -0.7120 O   0  0  0  0  0  0  0  0  0  0  0  0
    3.3350   -4.2370   -0.7740 H   0  0  0  0  0  0  0  0  0  0  0  0
  1  2  1  0  0  0  0
  1  8  1  0  0  0  0
  3  2  2  0  0  0  0
  4  3  1  0  0  0  0
  5  4  2  0  0  0  0
  5  6  1  0  0  0  0
  6  1  2  0  0  0  0
  7  8  1  0  0  0  0
  9  4  1  0  0  0  0
  9 11  1  0  0  0  0
 10  9  2  0  0  0  0
 11 12  1  0  0  0  0
 12 13  2  0  0  0  0
 14 13  1  0  0  0  0
 15 14  2  0  0  0  0
 16 11  2  0  0  0  0
 16 15  1  0  0  0  0
 17  5  1  0  0  0  0
 18 17  1  0  0  0  0
M  END
>  <MODEL>
2

>  <REMARK>
 VINA RESULT:      -5.5      2.270      3.073
  Name = ox2_shuffle_ligand
  5 active torsions:
  status: ('A' for Active; 'I' for Inactive)
    1  A    between atoms: C_1  and  O_2
    2  A    between atoms: O_2  and  C_3
    3  A    between atoms: C_6  and  C_7
    4  A    between atoms: C_7  and  C_9
    5  A    between atoms: C_15  and  O_16
                            x       y       z     vdW  Elec       q    Type
                         _______ _______ _______ _____ _____    ______ ____

>  <TORSDO>
F 4

$$$$
ox2_shuffle_ligand
 OpenBabel10092621213D

 18 19  0  0  0  0  0  0  0  0999 V2000
    5.5530   -6.8210    1.8590 C   0  0  0  0  0  0  0  0  0  0  0  0
    4.8040   -7.9790    1.9960 C   0  0  0  0  0  3  0  0  0  0  0  0
    3.6810   -8.1810    1.2220 C   0  0  0  0  0  3  0  0  0  0  0  0
    3.2830   -7.2220    0.2990 C   0  0  0  0  0  0  0  0  0  0  0  0
    4.0320   -6.0440    0.1640 C   0  0  0  0  0  0  0  0  0  0  0  0
    5.1640   -5.8580    0.9470 C   0  0  0  0  0  3  0  0  0  0  0  0
    7.8050   -7.4640    2.4090 C   0  0  0  0  0  1  0  0  0  0  0  0
    6.6620   -6.6880    2.6580 O   0  0  0  0  0  0  0  0  0  0  0  0
    2.0560   -7.4390   -0.5460 C   0  0  0  0  0  0  0  0  0  0  0  0
    2.1730   -7.8710   -1.6700 O   0  0  0  0  0  0  0  0  0  0  0  0
    0.7170   -7.1100   -0.0130 C   0  0  0  0  0  0  0  0  0  0  0  0
   -0.0250   -8.0610    0.6760 C   0  0  0  0  0  3  0  0  0  0  0  0
   -1.2860   -7.7380    1.1570 C   0  0  0  0  0  3  0  0  0  0  0  0
   -1.8020   -6.4590    0.9570 C   0  0  0  0  0  3  0  0  0  0  0  0
   -1.0670   -5.5120    0.2550 C   0  0  0  0  0  3  0  0  0  0  0  0
    0.1950   -5.8380   -0.2460 C   0  0  0  0  0  3  0  0  0  0  0  0
    3.6470   -5.0960   -0.7360 O   0  0  0  0  0  0  0  0  0  0  0  0
    3.0560   -4.3550   -0.4510 H   0  0  0  0  0  0  0  0  0  0  0  0
  1  2  1  0  0  0  0
  1  8  1  0  0  0  0
  3  2  2  0  0  0  0
  4  3  1  0  0  0  0
  5  4  2  0  0  0  0
  5  6  1  0  0  0  0
  6  1  2  0  0  0  0
  7  8  1  0  0  0  0
  9 11  1  0  0  0  0
  9  4  1  0  0  0  0
 10  9  2  0  0  0  0
 11 12  1  0  0  0  0
 12 13  2  0  0  0  0
 14 13  1  0  0  0  0
 15 14  2  0  0  0  0
 16 11  2  0  0  0  0
 16 15  1  0  0  0  0
 17 18  1  0  0  0  0
 17  5  1  0  0  0  0
M  END
>  <MODEL>
3

>  <REMARK>
 VINA RESULT:      -5.2      1.796      5.881
  Name = ox2_shuffle_ligand
  5 active torsions:
  status: ('A' for Active; 'I' for Inactive)
    1  A    between atoms: C_1  and  O_2
    2  A    between atoms: O_2  and  C_3
    3  A    between atoms: C_6  and  C_7
    4  A    between atoms: C_7  and  C_9
    5  A    between atoms: C_15  and  O_16
                            x       y       z     vdW  Elec       q    Type
                         _______ _______ _______ _____ _____    ______ ____

>  <TORSDO>
F 4

$$$$
ox2_shuffle_ligand
 OpenBabel10092621213D

 18 19  0  0  0  0  0  0  0  0999 V2000
    1.4740   -8.0920    0.0650 C   0  0  0  0  0  0  0  0  0  0  0  0
    2.1330   -8.6800    1.1340 C   0  0  0  0  0  3  0  0  0  0  0  0
    3.3010   -8.1340    1.6220 C   0  0  0  0  0  3  0  0  0  0  0  0
    3.8360   -6.9900    1.0420 C   0  0  0  0  0  0  0  0  0  0  0  0
    3.1780   -6.3970   -0.0450 C   0  0  0  0  0  0  0  0  0  0  0  0
    1.9990   -6.9560   -0.5210 C   0  0  0  0  0  3  0  0  0  0  0  0
    0.1170   -8.9380   -1.7320 C   0  0  0  0  0  1  0  0  0  0  0  0
    0.3130   -8.6860   -0.3650 O   0  0  0  0  0  0  0  0  0  0  0  0
    5.1130   -6.3920    1.5710 C   0  0  0  0  0  0  0  0  0  0  0  0
    5.0850   -5.3160    2.1240 O   0  0  0  0  0  0  0  0  0  0  0  0
    6.3950   -7.1070    1.4030 C   0  0  0  0  0  0  0  0  0  0  0  0
    6.7360   -7.6740    0.1800 C   0  0  0  0  0  3  0  0  0  0  0  0
    7.9380   -8.3530    0.0450 C   0  0  0  0  0  3  0  0  0  0  0  0
    8.8060   -8.4570    1.1290 C   0  0  0  0  0  3  0  0  0  0  0  0
    8.4600   -7.9030    2.3560 C   0  0  0  0  0  3  0  0  0  0  0  0
    7.2430   -7.2340    2.5020 C   0  0  0  0  0  3  0  0  0  0  0  0
    3.6980   -5.2770   -0.6210 O   0  0  0  0  0  0  0  0  0  0  0  0
    4.4150   -5.3560   -1.2990 H   0  0  0  0  0  0  0  0  0  0  0  0
  1  2  1  0  0  0  0
  2  3  2  0  0  0  0
  4  9  1  0  0  0  0
  4  3  1  0  0  0  0
  5  4  2  0  0  0  0
  6  5  1  0  0  0  0
  6  1  2  0  0  0  0
  7  8  1  0  0  0  0
  8  1  1  0  0  0  0
  9 10  2  0  0  0  0
 11  9  1  0  0  0  0
 11 16  1  0  0  0  0
 12 11  2  0  0  0  0
 13 12  1  0  0  0  0
 13 14  2  0  0  0  0
 14 15  1  0  0  0  0
 15 16  2  0  0  0  0
 17  5  1  0  0  0  0
 18 17  1  0  0  0  0
M  END
>  <MODEL>
4

>  <REMARK>
 VINA RESULT:      -5.1      2.603      3.774
  Name = ox2_shuffle_ligand
  5 active torsions:
  status: ('A' for Active; 'I' for Inactive)
    1  A    between atoms: C_1  and  O_2
    2  A    between atoms: O_2  and  C_3
    3  A    between atoms: C_6  and  C_7
    4  A    between atoms: C_7  and  C_9
    5  A    between atoms: C_15  and  O_16
                            x       y       z     vdW  Elec       q    Type
                         _______ _______ _______ _____ _____    ______ ____

>  <TORSDO>
F 4

$$$$
ox2_shuffle_ligand
 OpenBabel10092621213D

 18 19  0  0  0  0  0  0  0  0999 V2000
    0.3010   -8.4320    0.4240 C   0  0  0  0  0  0  0  0  0  0  0  0
    1.5200   -9.0900    0.4770 C   0  0  0  0  0  3  0  0  0  0  0  0
    2.7000   -8.3860    0.3680 C   0  0  0  0  0  3  0  0  0  0  0  0
    2.6810   -7.0080    0.1970 C   0  0  0  0  0  0  0  0  0  0  0  0
    1.4500   -6.3380    0.1320 C   0  0  0  0  0  0  0  0  0  0  0  0
    0.2700   -7.0610    0.2500 C   0  0  0  0  0  3  0  0  0  0  0  0
   -2.0680   -8.5820    0.8150 C   0  0  0  0  0  1  0  0  0  0  0  0
   -0.8340   -9.1950    0.5450 O   0  0  0  0  0  0  0  0  0  0  0  0
    3.9690   -6.2360    0.0750 C   0  0  0  0  0  0  0  0  0  0  0  0
    3.9900   -5.2040   -0.5570 O   0  0  0  0  0  0  0  0  0  0  0  0
    5.2040   -6.7430    0.7100 C   0  0  0  0  0  0  0  0  0  0  0  0
    6.1500   -7.4360   -0.0340 C   0  0  0  0  0  3  0  0  0  0  0  0
    7.2960   -7.9160    0.5820 C   0  0  0  0  0  3  0  0  0  0  0  0
    7.5020   -7.6950    1.9420 C   0  0  0  0  0  3  0  0  0  0  0  0
    6.5500   -7.0130    2.6900 C   0  0  0  0  0  3  0  0  0  0  0  0
    5.3860   -6.5440    2.0770 C   0  0  0  0  0  3  0  0  0  0  0  0
    1.4230   -4.9870   -0.0390 O   0  0  0  0  0  0  0  0  0  0  0  0
    1.4660   -4.3880    0.7480 H   0  0  0  0  0  0  0  0  0  0  0  0
  1  2  1  0  0  0  0
  1  8  1  0  0  0  0
  3  2  2  0  0  0  0
  4  3  1  0  0  0  0
  5  4  2  0  0  0  0
  5  6  1  0  0  0  0
  6  1  2  0  0  0  0
  8  7  1  0  0  0  0
  9  4  1  0  0  0  0
  9 11  1  0  0  0  0
 10  9  2  0  0  0  0
 11 16  1  0  0  0  0
 12 13  1  0  0  0  0
 12 11  2  0  0  0  0
 13 14  2  0  0  0  0
 14 15  1  0  0  0  0
 16 15  2  0  0  0  0
 17  5  1  0  0  0  0
 17 18  1  0  0  0  0
M  END
>  <MODEL>
5

>  <REMARK>
 VINA RESULT:      -4.9      1.796      2.330
  Name = ox2_shuffle_ligand
  5 active torsions:
  status: ('A' for Active; 'I' for Inactive)
    1  A    between atoms: C_1  and  O_2
    2  A    between atoms: O_2  and  C_3
    3  A    between atoms: C_6  and  C_7
    4  A    between atoms: C_7  and  C_9
    5  A    between atoms: C_15  and  O_16
                            x       y       z     vdW  Elec       q    Type
                         _______ _______ _______ _____ _____    ______ ____

>  <TORSDO>
F 4

$$$$
ox2_shuffle_ligand
 OpenBabel10092621213D

 18 19  0  0  0  0  0  0  0  0999 V2000
    4.9710   -7.4060    2.0340 C   0  0  0  0  0  0  0  0  0  0  0  0
    3.7710   -7.9830    2.4210 C   0  0  0  0  0  3  0  0  0  0  0  0
    2.5920   -7.6280    1.7990 C   0  0  0  0  0  3  0  0  0  0  0  0
    2.5930   -6.6820    0.7830 C   0  0  0  0  0  0  0  0  0  0  0  0
    3.8030   -6.0880    0.3950 C   0  0  0  0  0  0  0  0  0  0  0  0
    4.9830   -6.4600    1.0260 C   0  0  0  0  0  3  0  0  0  0  0  0
    7.3670   -7.6050    2.1090 C   0  0  0  0  0  1  0  0  0  0  0  0
    6.1070   -7.8100    2.6920 O   0  0  0  0  0  0  0  0  0  0  0  0
    1.3070   -6.2910    0.1040 C   0  0  0  0  0  0  0  0  0  0  0  0
    0.9330   -5.1400    0.1500 O   0  0  0  0  0  0  0  0  0  0  0  0
    0.4970   -7.3070   -0.6000 C   0  0  0  0  0  0  0  0  0  0  0  0
   -0.8860   -7.3290   -0.4660 C   0  0  0  0  0  3  0  0  0  0  0  0
   -1.6280   -8.2990   -1.1240 C   0  0  0  0  0  3  0  0  0  0  0  0
   -0.9880   -9.2430   -1.9240 C   0  0  0  0  0  3  0  0  0  0  0  0
    0.3960   -9.2310   -2.0470 C   0  0  0  0  0  3  0  0  0  0  0  0
    1.1480   -8.2670   -1.3720 C   0  0  0  0  0  3  0  0  0  0  0  0
    3.8120   -5.1560   -0.5990 O   0  0  0  0  0  0  0  0  0  0  0  0
    2.9850   -4.9720   -1.1110 H   0  0  0  0  0  0  0  0  0  0  0  0
  1  2  1  0  0  0  0
  1  8  1  0  0  0  0
  3  2  2  0  0  0  0
  4  3  1  0  0  0  0
  5  4  2  0  0  0  0
  5  6  1  0  0  0  0
  6  1  2  0  0  0  0
  7  8  1  0  0  0  0
  9 10  2  0  0  0  0
  9  4  1  0  0  0  0
 11 12  1  0  0  0  0
 11  9  1  0  0  0  0
 13 12  2  0  0  0  0
 14 13  1  0  0  0  0
 15 14  2  0  0  0  0
 15 16  1  0  0  0  0
 16 11  2  0  0  0  0
 17  5  1  0  0  0  0
 18 17  1  0  0  0  0
M  END
>  <MODEL>
6

>  <REMARK>
 VINA RESULT:      -4.8      2.067      5.900
  Name = ox2_shuffle_ligand
  5 active torsions:
  status: ('A' for Active; 'I' for Inactive)
    1  A    between atoms: C_1  and  O_2
    2  A    between atoms: O_2  and  C_3
    3  A    between atoms: C_6  and  C_7
    4  A    between atoms: C_7  and  C_9
    5  A    between atoms: C_15  and  O_16
                            x       y       z     vdW  Elec       q    Type
                         _______ _______ _______ _____ _____    ______ ____

>  <TORSDO>
F 4

$$$$
ox2_shuffle_ligand
 OpenBabel10092621213D

 18 19  0  0  0  0  0  0  0  0999 V2000
   -1.3230   -7.7410   -0.4890 C   0  0  0  0  0  0  0  0  0  0  0  0
   -0.6240   -6.6100   -0.0940 C   0  0  0  0  0  3  0  0  0  0  0  0
    0.7480   -6.5560   -0.2200 C   0  0  0  0  0  3  0  0  0  0  0  0
    1.4480   -7.6370   -0.7390 C   0  0  0  0  0  0  0  0  0  0  0  0
    0.7470   -8.7870   -1.1300 C   0  0  0  0  0  0  0  0  0  0  0  0
   -0.6360   -8.8240   -1.0030 C   0  0  0  0  0  3  0  0  0  0  0  0
   -3.3110   -8.6280    0.5340 C   0  0  0  0  0  1  0  0  0  0  0  0
   -2.6870   -7.7240   -0.3410 O   0  0  0  0  0  0  0  0  0  0  0  0
    2.9470   -7.5820   -0.8750 C   0  0  0  0  0  0  0  0  0  0  0  0
    3.4670   -7.9540   -1.9020 O   0  0  0  0  0  0  0  0  0  0  0  0
    3.7790   -7.0910    0.2430 C   0  0  0  0  0  0  0  0  0  0  0  0
    3.9010   -7.8310    1.4130 C   0  0  0  0  0  3  0  0  0  0  0  0
    4.6760   -7.3470    2.4570 C   0  0  0  0  0  3  0  0  0  0  0  0
    5.3370   -6.1280    2.3290 C   0  0  0  0  0  3  0  0  0  0  0  0
    5.2030   -5.3800    1.1650 C   0  0  0  0  0  3  0  0  0  0  0  0
    4.4100   -5.8550    0.1180 C   0  0  0  0  0  3  0  0  0  0  0  0
    1.4260   -9.8540   -1.6370 O   0  0  0  0  0  0  0  0  0  0  0  0
    1.8260  -10.5220   -1.0260 H   0  0  0  0  0  0  0  0  0  0  0  0
  1  8  1  0  0  0  0
  1  2  1  0  0  0  0
  3  2  2  0  0  0  0
  4  3  1  0  0  0  0
  5  6  1  0  0  0  0
  5  4  2  0  0  0  0
  6  1  2  0  0  0  0
  8  7  1  0  0  0  0
  9  4  1  0  0  0  0
  9 11  1  0  0  0  0
 10  9  2  0  0  0  0
 11 12  1  0  0  0  0
 12 13  2  0  0  0  0
 14 13  1  0  0  0  0
 15 14  2  0  0  0  0
 16 11  2  0  0  0  0
 16 15  1  0  0  0  0
 17  5  1  0  0  0  0
 17 18  1  0  0  0  0
M  END
>  <MODEL>
7

>  <REMARK>
 VINA RESULT:      -4.8      1.475      2.317
  Name = ox2_shuffle_ligand
  5 active torsions:
  status: ('A' for Active; 'I' for Inactive)
    1  A    between atoms: C_1  and  O_2
    2  A    between atoms: O_2  and  C_3
    3  A    between atoms: C_6  and  C_7
    4  A    between atoms: C_7  and  C_9
    5  A    between atoms: C_15  and  O_16
                            x       y       z     vdW  Elec       q    Type
                         _______ _______ _______ _____ _____    ______ ____

>  <TORSDO>
F 4

$$$$
ox2_shuffle_ligand
 OpenBabel10092621213D

 18 19  0  0  0  0  0  0  0  0999 V2000
    0.7190   -6.2050   -0.2650 C   0  0  0  0  0  0  0  0  0  0  0  0
    1.7870   -5.3420   -0.0670 C   0  0  0  0  0  3  0  0  0  0  0  0
    3.0830   -5.7910   -0.2080 C   0  0  0  0  0  3  0  0  0  0  0  0
    3.3350   -7.1150   -0.5420 C   0  0  0  0  0  0  0  0  0  0  0  0
    2.2580   -7.9940   -0.7330 C   0  0  0  0  0  0  0  0  0  0  0  0
    0.9580   -7.5250   -0.5940 C   0  0  0  0  0  3  0  0  0  0  0  0
   -0.7790   -4.3240   -0.3430 C   0  0  0  0  0  1  0  0  0  0  0  0
   -0.5440   -5.6900   -0.1150 O   0  0  0  0  0  0  0  0  0  0  0  0
    4.7500   -7.6080   -0.6930 C   0  0  0  0  0  0  0  0  0  0  0  0
    5.1490   -7.9550   -1.7820 O   0  0  0  0  0  0  0  0  0  0  0  0
    5.6410   -7.6850    0.4830 C   0  0  0  0  0  0  0  0  0  0  0  0
    7.0150   -7.8230    0.3230 C   0  0  0  0  0  3  0  0  0  0  0  0
    7.8340   -7.9070    1.4390 C   0  0  0  0  0  3  0  0  0  0  0  0
    7.2820   -7.8440    2.7160 C   0  0  0  0  0  3  0  0  0  0  0  0
    5.9070   -7.7200    2.8770 C   0  0  0  0  0  3  0  0  0  0  0  0
    5.0770   -7.6530    1.7560 C   0  0  0  0  0  3  0  0  0  0  0  0
    2.4970   -9.2950   -1.0580 O   0  0  0  0  0  0  0  0  0  0  0  0
    1.8840  -10.0040   -0.7400 H   0  0  0  0  0  0  0  0  0  0  0  0
  1  8  1  0  0  0  0
  1  2  1  0  0  0  0
  3  2  2  0  0  0  0
  4  3  1  0  0  0  0
  5  6  1  0  0  0  0
  5  4  2  0  0  0  0
  6  1  2  0  0  0  0
  7  8  1  0  0  0  0
  9  4  1  0  0  0  0
  9 11  1  0  0  0  0
 10  9  2  0  0  0  0
 11 16  1  0  0  0  0
 12 11  2  0  0  0  0
 12 13  1  0  0  0  0
 13 14  2  0  0  0  0
 14 15  1  0  0  0  0
 16 15  2  0  0  0  0
 17 18  1  0  0  0  0
 17  5  1  0  0  0  0
M  END
>  <MODEL>
8

>  <REMARK>
 VINA RESULT:      -4.8      2.057      3.160
  Name = ox2_shuffle_ligand
  5 active torsions:
  status: ('A' for Active; 'I' for Inactive)
    1  A    between atoms: C_1  and  O_2
    2  A    between atoms: O_2  and  C_3
    3  A    between atoms: C_6  and  C_7
    4  A    between atoms: C_7  and  C_9
    5  A    between atoms: C_15  and  O_16
                            x       y       z     vdW  Elec       q    Type
                         _______ _______ _______ _____ _____    ______ ____

>  <TORSDO>
F 4

$$$$
ox2_shuffle_ligand
 OpenBabel10092621213D

 18 19  0  0  0  0  0  0  0  0999 V2000
    0.5470   -8.7900   -1.7440 C   0  0  0  0  0  0  0  0  0  0  0  0
    1.8810   -9.0300   -2.0350 C   0  0  0  0  0  3  0  0  0  0  0  0
    2.8710   -8.2590   -1.4640 C   0  0  0  0  0  3  0  0  0  0  0  0
    2.5430   -7.2270   -0.5940 C   0  0  0  0  0  0  0  0  0  0  0  0
    1.1940   -6.9740   -0.3040 C   0  0  0  0  0  0  0  0  0  0  0  0
    0.2080   -7.7640   -0.8820 C   0  0  0  0  0  3  0  0  0  0  0  0
   -0.2080  -10.0120   -3.6730 C   0  0  0  0  0  1  0  0  0  0  0  0
   -0.3860   -9.6000   -2.3430 O   0  0  0  0  0  0  0  0  0  0  0  0
    3.6220   -6.3810    0.0290 C   0  0  0  0  0  0  0  0  0  0  0  0
    3.8070   -5.2560   -0.3750 O   0  0  0  0  0  0  0  0  0  0  0  0
    4.4610   -6.9280    1.1160 C   0  0  0  0  0  0  0  0  0  0  0  0
    3.9280   -7.8110    2.0480 C   0  0  0  0  0  3  0  0  0  0  0  0
    4.7280   -8.3020    3.0690 C   0  0  0  0  0  3  0  0  0  0  0  0
    6.0640   -7.9180    3.1550 C   0  0  0  0  0  3  0  0  0  0  0  0
    6.5940   -7.0240    2.2330 C   0  0  0  0  0  3  0  0  0  0  0  0
    5.7880   -6.5130    1.2130 C   0  0  0  0  0  3  0  0  0  0  0  0
    0.8630   -5.9620    0.5460 O   0  0  0  0  0  0  0  0  0  0  0  0
    0.7250   -5.0460    0.1950 H   0  0  0  0  0  0  0  0  0  0  0  0
  1  6  1  0  0  0  0
  2  1  2  0  0  0  0
  2  3  1  0  0  0  0
  3  4  2  0  0  0  0
  4  5  1  0  0  0  0
  4  9  1  0  0  0  0
  5 17  1  0  0  0  0
  6  5  2  0  0  0  0
  7  8  1  0  0  0  0
  8  1  1  0  0  0  0
  9 11  1  0  0  0  0
 10  9  2  0  0  0  0
 11 16  2  0  0  0  0
 11 12  1  0  0  0  0
 12 13  2  0  0  0  0
 13 14  1  0  0  0  0
 15 14  2  0  0  0  0
 16 15  1  0  0  0  0
 18 17  1  0  0  0  0
M  END
>  <MODEL>
9

>  <REMARK>
 VINA RESULT:      -4.7      2.140      3.260
  Name = ox2_shuffle_ligand
  5 active torsions:
  status: ('A' for Active; 'I' for Inactive)
    1  A    between atoms: C_1  and  O_2
    2  A    between atoms: O_2  and  C_3
    3  A    between atoms: C_6  and  C_7
    4  A    between atoms: C_7  and  C_9
    5  A    between atoms: C_15  and  O_16
                            x       y       z     vdW  Elec       q    Type
                         _______ _______ _______ _____ _____    ______ ____

>  <TORSDO>
F 4

$$$$
