bgox31_4_pose0_reference
     RDKit          3D

 17 18  0  0  0  0  0  0  0  0999 V2000
   -4.4430   -8.9880    6.4500 C   0  0  0  0  0  0  0  0  0  0  0  0
   -5.1360   -7.7130    6.3850 O   0  0  0  0  0  0  0  0  0  0  0  0
   -5.0850   -7.0770    5.1700 C   0  0  0  0  0  0  0  0  0  0  0  0
   -5.5800   -5.8050    5.0730 C   0  0  0  0  0  0  0  0  0  0  0  0
   -5.5820   -5.1030    3.8140 C   0  0  0  0  0  0  0  0  0  0  0  0
   -5.0020   -5.7610    2.7200 C   0  0  0  0  0  0  0  0  0  0  0  0
   -4.9780   -5.0200    1.4470 C   0  0  0  0  0  0  0  0  0  0  0  0
   -6.1100   -4.7560    0.9220 O   0  0  0  0  0  0  0  0  0  0  0  0
   -3.7900   -4.3710    0.8870 C   0  0  0  0  0  0  0  0  0  0  0  0
   -3.9940   -3.5030   -0.1940 C   0  0  0  0  0  0  0  0  0  0  0  0
   -2.8720   -2.9230   -0.8260 C   0  0  0  0  0  0  0  0  0  0  0  0
   -1.6200   -3.2880   -0.4440 C   0  0  0  0  0  0  0  0  0  0  0  0
   -1.3940   -4.1920    0.5800 C   0  0  0  0  0  0  0  0  0  0  0  0
   -2.4890   -4.7750    1.2490 C   0  0  0  0  0  0  0  0  0  0  0  0
   -4.5250   -7.0600    2.8410 C   0  0  0  0  0  0  0  0  0  0  0  0
   -3.9790   -7.6690    1.6980 O   0  0  0  0  0  0  0  0  0  0  0  0
   -4.5440   -7.7460    4.0700 C   0  0  0  0  0  0  0  0  0  0  0  0
  2  1  1  0
  3  2  1  0
  4  3  1  0
  5  4  2  0
  6  5  1  0
  7  6  1  0
  8  7  2  0
  9  7  1  0
 10  9  2  0
 11 10  1  0
 12 11  2  0
 13 12  1  0
 14 13  2  0
 14  9  1  0
 15  6  2  0
 16 15  1  0
 17 15  1  0
 17  3  2  0
M  END
>  <structure>  (1) 
bgox31_4

>  <pose>  (1) 
0

>  <is_reference>  (1) 
1

>  <rmsd_to_reference_A>  (1) 
0.000

>  <vina_score>  (1) 


$$$$
