bgox31_4_ligand
 OpenBabel10062622383D

 18 19  0  0  0  0  0  0  0  0999 V2000
   -2.9470   -3.0450   -0.0590 C   0  0  0  0  0  0  0  0  0  0  0  0
   -2.8800   -2.5500   -1.3330 C   0  0  0  0  0  3  0  0  0  0  0  0
   -4.0370   -2.5580   -2.1940 C   0  0  0  0  0  3  0  0  0  0  0  0
   -5.2030   -3.1470   -1.6840 C   0  0  0  0  0  0  0  0  0  0  0  0
   -5.2490   -3.6230   -0.3800 C   0  0  0  0  0  0  0  0  0  0  0  0
   -4.1210   -3.5940    0.4610 C   0  0  0  0  0  3  0  0  0  0  0  0
   -0.8830   -4.0750    0.5580 C   0  0  0  0  0  1  0  0  0  0  0  0
   -1.8260   -2.9840    0.7310 O   0  0  0  0  0  0  0  0  0  0  0  0
   -6.3670   -3.1810   -2.5860 C   0  0  0  0  0  0  0  0  0  0  0  0
   -6.7030   -4.3260   -3.0370 O   0  0  0  0  0  0  0  0  0  0  0  0
   -7.2880   -2.0610   -2.7950 C   0  0  0  0  0  0  0  0  0  0  0  0
   -7.1310   -1.3270   -3.9790 C   0  0  0  0  0  3  0  0  0  0  0  0
   -7.9340   -0.1830   -4.1850 C   0  0  0  0  0  3  0  0  0  0  0  0
   -8.7680    0.2410   -3.2000 C   0  0  0  0  0  3  0  0  0  0  0  0
   -8.8930   -0.4320   -1.9970 C   0  0  0  0  0  3  0  0  0  0  0  0
   -8.1240   -1.5900   -1.7630 C   0  0  0  0  0  3  0  0  0  0  0  0
   -6.4580   -4.1780    0.0740 O   0  0  0  0  0  0  0  0  0  0  0  0
   -6.6510   -5.1370   -0.0800 H   0  0  0  0  0  0  0  0  0  0  0  0
  1  6  1  0  0  0  0
  1  8  1  0  0  0  0
  2  1  2  0  0  0  0
  3  4  2  0  0  0  0
  3  2  1  0  0  0  0
  4  5  1  0  0  0  0
  5 17  1  0  0  0  0
  5  6  2  0  0  0  0
  7  8  1  0  0  0  0
  9  4  1  0  0  0  0
 10  9  2  0  0  0  0
 11  9  1  0  0  0  0
 11 16  1  0  0  0  0
 12 11  2  0  0  0  0
 13 12  1  0  0  0  0
 13 14  2  0  0  0  0
 14 15  1  0  0  0  0
 15 16  2  0  0  0  0
 18 17  1  0  0  0  0
M  END
>  <MODEL>
1

>  <REMARK>
 VINA RESULT:      -4.8      0.000      0.000
  Name = bgox31_4_ligand
  5 active torsions:
  status: ('A' for Active; 'I' for Inactive)
    1  A    between atoms: C_1  and  O_2
    2  A    between atoms: O_2  and  C_3
    3  A    between atoms: C_6  and  C_7
    4  A    between atoms: C_7  and  C_9
    5  A    between atoms: C_15  and  O_16
                            x       y       z     vdW  Elec       q    Type
                         _______ _______ _______ _____ _____    ______ ____

>  <TORSDO>
F 4

$$$$
bgox31_4_ligand
 OpenBabel10062622383D

 18 19  0  0  0  0  0  0  0  0999 V2000
   -3.1070   -3.4050    0.3310 C   0  0  0  0  0  0  0  0  0  0  0  0
   -2.4980   -4.2330    1.2350 C   0  0  0  0  0  3  0  0  0  0  0  0
   -3.2610   -5.1950    1.9920 C   0  0  0  0  0  3  0  0  0  0  0  0
   -4.6500   -5.1950    1.8000 C   0  0  0  0  0  0  0  0  0  0  0  0
   -5.2400   -4.3580    0.8610 C   0  0  0  0  0  0  0  0  0  0  0  0
   -4.4860   -3.4350    0.1120 C   0  0  0  0  0  3  0  0  0  0  0  0
   -1.0560   -3.0570   -0.8420 C   0  0  0  0  0  1  0  0  0  0  0  0
   -2.3310   -2.5300   -0.3870 O   0  0  0  0  0  0  0  0  0  0  0  0
   -5.4220   -6.1580    2.6040 C   0  0  0  0  0  0  0  0  0  0  0  0
   -5.8760   -7.1780    1.9880 O   0  0  0  0  0  0  0  0  0  0  0  0
   -5.4910   -6.1490    4.0680 C   0  0  0  0  0  0  0  0  0  0  0  0
   -5.8130   -4.9290    4.6780 C   0  0  0  0  0  3  0  0  0  0  0  0
   -5.8040   -4.8470    6.0880 C   0  0  0  0  0  3  0  0  0  0  0  0
   -5.3930   -5.9140    6.8220 C   0  0  0  0  0  3  0  0  0  0  0  0
   -5.0100   -7.1100    6.2390 C   0  0  0  0  0  3  0  0  0  0  0  0
   -5.0270   -7.2360    4.8350 C   0  0  0  0  0  3  0  0  0  0  0  0
   -6.6340   -4.4290    0.7020 O   0  0  0  0  0  0  0  0  0  0  0  0
   -7.0240   -4.9990   -0.0070 H   0  0  0  0  0  0  0  0  0  0  0  0
  1  2  1  0  0  0  0
  2  3  2  0  0  0  0
  4  3  1  0  0  0  0
  4  9  1  0  0  0  0
  5  4  2  0  0  0  0
  6  1  2  0  0  0  0
  6  5  1  0  0  0  0
  7  8  1  0  0  0  0
  8  1  1  0  0  0  0
  9 11  1  0  0  0  0
 10  9  2  0  0  0  0
 11 12  2  0  0  0  0
 11 16  1  0  0  0  0
 12 13  1  0  0  0  0
 13 14  2  0  0  0  0
 15 14  1  0  0  0  0
 16 15  2  0  0  0  0
 17  5  1  0  0  0  0
 18 17  1  0  0  0  0
M  END
>  <MODEL>
2

>  <REMARK>
 VINA RESULT:      -4.7      3.867      6.777
  Name = bgox31_4_ligand
  5 active torsions:
  status: ('A' for Active; 'I' for Inactive)
    1  A    between atoms: C_1  and  O_2
    2  A    between atoms: O_2  and  C_3
    3  A    between atoms: C_6  and  C_7
    4  A    between atoms: C_7  and  C_9
    5  A    between atoms: C_15  and  O_16
                            x       y       z     vdW  Elec       q    Type
                         _______ _______ _______ _____ _____    ______ ____

>  <TORSDO>
F 4

$$$$
bgox31_4_ligand
 OpenBabel10062622383D

 18 19  0  0  0  0  0  0  0  0999 V2000
   -4.7370   -7.6270    4.7470 C   0  0  0  0  0  0  0  0  0  0  0  0
   -5.1320   -6.3210    4.8550 C   0  0  0  0  0  3  0  0  0  0  0  0
   -5.1210   -5.4450    3.7100 C   0  0  0  0  0  3  0  0  0  0  0  0
   -4.6330   -5.9780    2.5080 C   0  0  0  0  0  0  0  0  0  0  0  0
   -4.2570   -7.3130    2.4220 C   0  0  0  0  0  0  0  0  0  0  0  0
   -4.2890   -8.1670    3.5400 C   0  0  0  0  0  3  0  0  0  0  0  0
   -4.2110   -7.8640    7.0650 C   0  0  0  0  0  1  0  0  0  0  0  0
   -4.7970   -8.4270    5.8610 O   0  0  0  0  0  0  0  0  0  0  0  0
   -4.5930   -5.0640    1.3540 C   0  0  0  0  0  0  0  0  0  0  0  0
   -5.7170   -4.7550    0.8350 O   0  0  0  0  0  0  0  0  0  0  0  0
   -3.4090   -4.3140    0.9300 C   0  0  0  0  0  0  0  0  0  0  0  0
   -3.6150   -3.2650    0.0240 C   0  0  0  0  0  3  0  0  0  0  0  0
   -2.4950   -2.5700   -0.4840 C   0  0  0  0  0  3  0  0  0  0  0  0
   -1.2420   -2.9880   -0.1670 C   0  0  0  0  0  3  0  0  0  0  0  0
   -1.0130   -4.0630    0.6760 C   0  0  0  0  0  3  0  0  0  0  0  0
   -2.1060   -4.7670    1.2200 C   0  0  0  0  0  3  0  0  0  0  0  0
   -3.8010   -7.7880    1.1800 O   0  0  0  0  0  0  0  0  0  0  0  0
   -4.3170   -7.5960    0.3570 H   0  0  0  0  0  0  0  0  0  0  0  0
  1  2  1  0  0  0  0
  1  8  1  0  0  0  0
  3  2  2  0  0  0  0
  4  3  1  0  0  0  0
  5  4  2  0  0  0  0
  5  6  1  0  0  0  0
  6  1  2  0  0  0  0
  8  7  1  0  0  0  0
  9  4  1  0  0  0  0
 10  9  2  0  0  0  0
 11 16  1  0  0  0  0
 11  9  1  0  0  0  0
 12 11  2  0  0  0  0
 13 14  2  0  0  0  0
 13 12  1  0  0  0  0
 14 15  1  0  0  0  0
 15 16  2  0  0  0  0
 17  5  1  0  0  0  0
 18 17  1  0  0  0  0
M  END
>  <MODEL>
3

>  <REMARK>
 VINA RESULT:      -4.7      4.093      6.639
  Name = bgox31_4_ligand
  5 active torsions:
  status: ('A' for Active; 'I' for Inactive)
    1  A    between atoms: C_1  and  O_2
    2  A    between atoms: O_2  and  C_3
    3  A    between atoms: C_6  and  C_7
    4  A    between atoms: C_7  and  C_9
    5  A    between atoms: C_15  and  O_16
                            x       y       z     vdW  Elec       q    Type
                         _______ _______ _______ _____ _____    ______ ____

>  <TORSDO>
F 4

$$$$
bgox31_4_ligand
 OpenBabel10062622383D

 18 19  0  0  0  0  0  0  0  0999 V2000
   -5.7640   -2.7720   -2.2890 C   0  0  0  0  0  0  0  0  0  0  0  0
   -6.2800   -3.3640   -1.1690 C   0  0  0  0  0  3  0  0  0  0  0  0
   -5.4310   -3.7210   -0.0600 C   0  0  0  0  0  3  0  0  0  0  0  0
   -4.0560   -3.4880   -0.2120 C   0  0  0  0  0  0  0  0  0  0  0  0
   -3.5610   -2.8660   -1.3520 C   0  0  0  0  0  0  0  0  0  0  0  0
   -4.4000   -2.5030   -2.4220 C   0  0  0  0  0  3  0  0  0  0  0  0
   -6.9270   -1.0060   -3.3990 C   0  0  0  0  0  1  0  0  0  0  0  0
   -6.6200   -2.4230   -3.3030 O   0  0  0  0  0  0  0  0  0  0  0  0
   -3.1950   -3.8890    0.9130 C   0  0  0  0  0  0  0  0  0  0  0  0
   -2.3020   -3.0510    1.2720 O   0  0  0  0  0  0  0  0  0  0  0  0
   -3.4450   -5.0430    1.7800 C   0  0  0  0  0  0  0  0  0  0  0  0
   -2.7920   -6.2370    1.4480 C   0  0  0  0  0  3  0  0  0  0  0  0
   -3.0700   -7.4000    2.1990 C   0  0  0  0  0  3  0  0  0  0  0  0
   -4.0310   -7.3680    3.1590 C   0  0  0  0  0  3  0  0  0  0  0  0
   -4.7350   -6.2150    3.4620 C   0  0  0  0  0  3  0  0  0  0  0  0
   -4.4690   -5.0290    2.7490 C   0  0  0  0  0  3  0  0  0  0  0  0
   -2.1760   -2.6400   -1.4280 O   0  0  0  0  0  0  0  0  0  0  0  0
   -1.8090   -2.0570   -2.1390 H   0  0  0  0  0  0  0  0  0  0  0  0
  1  2  1  0  0  0  0
  2  3  2  0  0  0  0
  4  3  1  0  0  0  0
  4  9  1  0  0  0  0
  5  4  2  0  0  0  0
  6  1  2  0  0  0  0
  6  5  1  0  0  0  0
  7  8  1  0  0  0  0
  8  1  1  0  0  0  0
  9 10  2  0  0  0  0
  9 11  1  0  0  0  0
 11 16  1  0  0  0  0
 12 11  2  0  0  0  0
 12 13  1  0  0  0  0
 13 14  2  0  0  0  0
 14 15  1  0  0  0  0
 16 15  2  0  0  0  0
 17  5  1  0  0  0  0
 18 17  1  0  0  0  0
M  END
>  <MODEL>
4

>  <REMARK>
 VINA RESULT:      -4.7      2.318      6.496
  Name = bgox31_4_ligand
  5 active torsions:
  status: ('A' for Active; 'I' for Inactive)
    1  A    between atoms: C_1  and  O_2
    2  A    between atoms: O_2  and  C_3
    3  A    between atoms: C_6  and  C_7
    4  A    between atoms: C_7  and  C_9
    5  A    between atoms: C_15  and  O_16
                            x       y       z     vdW  Elec       q    Type
                         _______ _______ _______ _____ _____    ______ ____

>  <TORSDO>
F 4

$$$$
bgox31_4_ligand
 OpenBabel10062622383D

 18 19  0  0  0  0  0  0  0  0999 V2000
   -7.2000   -4.6260    5.0250 C   0  0  0  0  0  0  0  0  0  0  0  0
   -5.9640   -5.2020    5.1350 C   0  0  0  0  0  3  0  0  0  0  0  0
   -5.1490   -5.4380    3.9700 C   0  0  0  0  0  3  0  0  0  0  0  0
   -5.7070   -5.1060    2.7270 C   0  0  0  0  0  0  0  0  0  0  0  0
   -6.9550   -4.5030    2.6450 C   0  0  0  0  0  0  0  0  0  0  0  0
   -7.7380   -4.2580    3.7900 C   0  0  0  0  0  3  0  0  0  0  0  0
   -8.1350   -2.9940    6.4970 C   0  0  0  0  0  1  0  0  0  0  0  0
   -7.9230   -4.3930    6.1680 O   0  0  0  0  0  0  0  0  0  0  0  0
   -4.8780   -5.3840    1.5410 C   0  0  0  0  0  0  0  0  0  0  0  0
   -5.3460   -6.2280    0.7070 O   0  0  0  0  0  0  0  0  0  0  0  0
   -3.7070   -4.5980    1.1440 C   0  0  0  0  0  0  0  0  0  0  0  0
   -3.9380   -3.4980    0.3090 C   0  0  0  0  0  3  0  0  0  0  0  0
   -2.8330   -2.7620   -0.1740 C   0  0  0  0  0  3  0  0  0  0  0  0
   -1.5710   -3.1880    0.0950 C   0  0  0  0  0  3  0  0  0  0  0  0
   -1.3180   -4.3100    0.8660 C   0  0  0  0  0  3  0  0  0  0  0  0
   -2.3960   -5.0560    1.3840 C   0  0  0  0  0  3  0  0  0  0  0  0
   -7.4440   -4.1730    1.3690 O   0  0  0  0  0  0  0  0  0  0  0  0
   -6.8180   -3.8810    0.6600 H   0  0  0  0  0  0  0  0  0  0  0  0
  1  2  1  0  0  0  0
  1  8  1  0  0  0  0
  3  2  2  0  0  0  0
  4  3  1  0  0  0  0
  5  4  2  0  0  0  0
  5  6  1  0  0  0  0
  6  1  2  0  0  0  0
  8  7  1  0  0  0  0
  9  4  1  0  0  0  0
 10  9  2  0  0  0  0
 11 16  1  0  0  0  0
 11  9  1  0  0  0  0
 12 11  2  0  0  0  0
 13 14  2  0  0  0  0
 13 12  1  0  0  0  0
 14 15  1  0  0  0  0
 15 16  2  0  0  0  0
 17  5  1  0  0  0  0
 18 17  1  0  0  0  0
M  END
>  <MODEL>
5

>  <REMARK>
 VINA RESULT:      -4.6      4.148      6.615
  Name = bgox31_4_ligand
  5 active torsions:
  status: ('A' for Active; 'I' for Inactive)
    1  A    between atoms: C_1  and  O_2
    2  A    between atoms: O_2  and  C_3
    3  A    between atoms: C_6  and  C_7
    4  A    between atoms: C_7  and  C_9
    5  A    between atoms: C_15  and  O_16
                            x       y       z     vdW  Elec       q    Type
                         _______ _______ _______ _____ _____    ______ ____

>  <TORSDO>
F 4

$$$$
bgox31_4_ligand
 OpenBabel10062622383D

 18 19  0  0  0  0  0  0  0  0999 V2000
   -9.3450    0.1750   -1.9630 C   0  0  0  0  0  0  0  0  0  0  0  0
   -9.4580   -1.0230   -1.3110 C   0  0  0  0  0  3  0  0  0  0  0  0
   -8.4640   -2.0550   -1.4760 C   0  0  0  0  0  3  0  0  0  0  0  0
   -7.4210   -1.7920   -2.3750 C   0  0  0  0  0  0  0  0  0  0  0  0
   -7.3190   -0.5600   -3.0090 C   0  0  0  0  0  0  0  0  0  0  0  0
   -8.2830    0.4490   -2.8280 C   0  0  0  0  0  3  0  0  0  0  0  0
   -9.8250    2.3580   -1.1220 C   0  0  0  0  0  1  0  0  0  0  0  0
  -10.3010    1.1350   -1.7460 O   0  0  0  0  0  0  0  0  0  0  0  0
   -6.4310   -2.8670   -2.5620 C   0  0  0  0  0  0  0  0  0  0  0  0
   -6.5280   -3.5490   -3.6360 O   0  0  0  0  0  0  0  0  0  0  0  0
   -5.2300   -3.0410   -1.7420 C   0  0  0  0  0  0  0  0  0  0  0  0
   -5.4140   -3.5520   -0.4510 C   0  0  0  0  0  3  0  0  0  0  0  0
   -4.2990   -3.6530    0.4100 C   0  0  0  0  0  3  0  0  0  0  0  0
   -3.0940   -3.1670    0.0120 C   0  0  0  0  0  3  0  0  0  0  0  0
   -2.9020   -2.6010   -1.2370 C   0  0  0  0  0  3  0  0  0  0  0  0
   -3.9870   -2.5020   -2.1320 C   0  0  0  0  0  3  0  0  0  0  0  0
   -6.2340   -0.3560   -3.8780 O   0  0  0  0  0  0  0  0  0  0  0  0
   -6.2760    0.3580   -4.5630 H   0  0  0  0  0  0  0  0  0  0  0  0
  1  8  1  0  0  0  0
  1  2  1  0  0  0  0
  3  2  2  0  0  0  0
  4  3  1  0  0  0  0
  5  6  1  0  0  0  0
  5  4  2  0  0  0  0
  6  1  2  0  0  0  0
  8  7  1  0  0  0  0
  9  4  1  0  0  0  0
  9 11  1  0  0  0  0
 10  9  2  0  0  0  0
 11 12  1  0  0  0  0
 12 13  2  0  0  0  0
 14 13  1  0  0  0  0
 15 14  2  0  0  0  0
 16 11  2  0  0  0  0
 16 15  1  0  0  0  0
 17  5  1  0  0  0  0
 18 17  1  0  0  0  0
M  END
>  <MODEL>
6

>  <REMARK>
 VINA RESULT:      -4.6      2.117      6.088
  Name = bgox31_4_ligand
  5 active torsions:
  status: ('A' for Active; 'I' for Inactive)
    1  A    between atoms: C_1  and  O_2
    2  A    between atoms: O_2  and  C_3
    3  A    between atoms: C_6  and  C_7
    4  A    between atoms: C_7  and  C_9
    5  A    between atoms: C_15  and  O_16
                            x       y       z     vdW  Elec       q    Type
                         _______ _______ _______ _____ _____    ______ ____

>  <TORSDO>
F 4

$$$$
bgox31_4_ligand
 OpenBabel10062622383D

 18 19  0  0  0  0  0  0  0  0999 V2000
   -6.8050   -8.0010   -0.2220 C   0  0  0  0  0  0  0  0  0  0  0  0
   -7.1910   -6.6920   -0.1190 C   0  0  0  0  0  3  0  0  0  0  0  0
   -6.3470   -5.7180    0.5270 C   0  0  0  0  0  3  0  0  0  0  0  0
   -5.1530   -6.1870    1.0910 C   0  0  0  0  0  0  0  0  0  0  0  0
   -4.7750   -7.5170    0.9550 C   0  0  0  0  0  0  0  0  0  0  0  0
   -5.5950   -8.4590    0.3060 C   0  0  0  0  0  3  0  0  0  0  0  0
   -7.8440  -10.1500   -0.2010 C   0  0  0  0  0  1  0  0  0  0  0  0
   -7.6300   -8.8820   -0.8750 O   0  0  0  0  0  0  0  0  0  0  0  0
   -4.3160   -5.1890    1.7800 C   0  0  0  0  0  0  0  0  0  0  0  0
   -4.3810   -5.1750    3.0530 O   0  0  0  0  0  0  0  0  0  0  0  0
   -3.2620   -4.4030    1.1340 C   0  0  0  0  0  0  0  0  0  0  0  0
   -3.6760   -3.3870    0.2620 C   0  0  0  0  0  3  0  0  0  0  0  0
   -2.6990   -2.6600   -0.4530 C   0  0  0  0  0  3  0  0  0  0  0  0
   -1.3910   -3.0190   -0.3610 C   0  0  0  0  0  3  0  0  0  0  0  0
   -0.9650   -4.0600    0.4450 C   0  0  0  0  0  3  0  0  0  0  0  0
   -1.9090   -4.7940    1.1910 C   0  0  0  0  0  3  0  0  0  0  0  0
   -3.5530   -7.9150    1.5240 O   0  0  0  0  0  0  0  0  0  0  0  0
   -3.2000   -8.8240    1.3520 H   0  0  0  0  0  0  0  0  0  0  0  0
  1  2  2  0  0  0  0
  1  6  1  0  0  0  0
  2  3  1  0  0  0  0
  3  4  2  0  0  0  0
  4  9  1  0  0  0  0
  5  4  1  0  0  0  0
  5 17  1  0  0  0  0
  6  5  2  0  0  0  0
  8  1  1  0  0  0  0
  8  7  1  0  0  0  0
  9 10  2  0  0  0  0
 11 16  1  0  0  0  0
 11  9  1  0  0  0  0
 12 11  2  0  0  0  0
 13 14  2  0  0  0  0
 13 12  1  0  0  0  0
 14 15  1  0  0  0  0
 15 16  2  0  0  0  0
 18 17  1  0  0  0  0
M  END
>  <MODEL>
7

>  <REMARK>
 VINA RESULT:      -4.6      4.276      6.610
  Name = bgox31_4_ligand
  5 active torsions:
  status: ('A' for Active; 'I' for Inactive)
    1  A    between atoms: C_1  and  O_2
    2  A    between atoms: O_2  and  C_3
    3  A    between atoms: C_6  and  C_7
    4  A    between atoms: C_7  and  C_9
    5  A    between atoms: C_15  and  O_16
                            x       y       z     vdW  Elec       q    Type
                         _______ _______ _______ _____ _____    ______ ____

>  <TORSDO>
F 4

$$$$
bgox31_4_ligand
 OpenBabel10062622383D

 18 19  0  0  0  0  0  0  0  0999 V2000
   -5.3370   -6.7120    5.7180 C   0  0  0  0  0  0  0  0  0  0  0  0
   -5.6430   -5.4350    5.3320 C   0  0  0  0  0  3  0  0  0  0  0  0
   -5.4750   -5.0120    3.9650 C   0  0  0  0  0  3  0  0  0  0  0  0
   -4.9310   -5.9490    3.0740 C   0  0  0  0  0  0  0  0  0  0  0  0
   -4.6480   -7.2440    3.4870 C   0  0  0  0  0  0  0  0  0  0  0  0
   -4.8330   -7.6550    4.8200 C   0  0  0  0  0  3  0  0  0  0  0  0
   -6.2480   -6.0940    7.8370 C   0  0  0  0  0  1  0  0  0  0  0  0
   -5.5460   -7.0730    7.0260 O   0  0  0  0  0  0  0  0  0  0  0  0
   -4.7310   -5.4940    1.6870 C   0  0  0  0  0  0  0  0  0  0  0  0
   -5.7130   -5.6570    0.8880 O   0  0  0  0  0  0  0  0  0  0  0  0
   -3.6070   -4.6690    1.2380 C   0  0  0  0  0  0  0  0  0  0  0  0
   -3.9110   -3.5900    0.3970 C   0  0  0  0  0  3  0  0  0  0  0  0
   -2.8530   -2.8190   -0.1350 C   0  0  0  0  0  3  0  0  0  0  0  0
   -1.5660   -3.1920    0.0950 C   0  0  0  0  0  3  0  0  0  0  0  0
   -1.2430   -4.2920    0.8700 C   0  0  0  0  0  3  0  0  0  0  0  0
   -2.2710   -5.0720    1.4360 C   0  0  0  0  0  3  0  0  0  0  0  0
   -4.1290   -8.1390    2.5350 O   0  0  0  0  0  0  0  0  0  0  0  0
   -3.2710   -7.9380    2.0830 H   0  0  0  0  0  0  0  0  0  0  0  0
  1  8  1  0  0  0  0
  2  1  1  0  0  0  0
  3  2  2  0  0  0  0
  4  5  2  0  0  0  0
  4  3  1  0  0  0  0
  5  6  1  0  0  0  0
  6  1  2  0  0  0  0
  8  7  1  0  0  0  0
  9  4  1  0  0  0  0
 10  9  2  0  0  0  0
 11 16  1  0  0  0  0
 11  9  1  0  0  0  0
 12 11  2  0  0  0  0
 13 14  2  0  0  0  0
 13 12  1  0  0  0  0
 14 15  1  0  0  0  0
 15 16  2  0  0  0  0
 17  5  1  0  0  0  0
 18 17  1  0  0  0  0
M  END
>  <MODEL>
8

>  <REMARK>
 VINA RESULT:      -4.5      4.356      6.923
  Name = bgox31_4_ligand
  5 active torsions:
  status: ('A' for Active; 'I' for Inactive)
    1  A    between atoms: C_1  and  O_2
    2  A    between atoms: O_2  and  C_3
    3  A    between atoms: C_6  and  C_7
    4  A    between atoms: C_7  and  C_9
    5  A    between atoms: C_15  and  O_16
                            x       y       z     vdW  Elec       q    Type
                         _______ _______ _______ _____ _____    ______ ____

>  <TORSDO>
F 4

$$$$
bgox31_4_ligand
 OpenBabel10062622383D

 18 19  0  0  0  0  0  0  0  0999 V2000
   -5.0750   -9.6060    1.2910 C   0  0  0  0  0  0  0  0  0  0  0  0
   -5.7490   -8.6040    0.6470 C   0  0  0  0  0  3  0  0  0  0  0  0
   -5.4030   -7.2210    0.8590 C   0  0  0  0  0  3  0  0  0  0  0  0
   -4.3930   -6.9560    1.7950 C   0  0  0  0  0  0  0  0  0  0  0  0
   -3.7110   -7.9930    2.4200 C   0  0  0  0  0  0  0  0  0  0  0  0
   -4.0420   -9.3420    2.1930 C   0  0  0  0  0  3  0  0  0  0  0  0
   -4.4440  -11.9050    1.4270 C   0  0  0  0  0  1  0  0  0  0  0  0
   -5.4230  -10.9080    1.0300 O   0  0  0  0  0  0  0  0  0  0  0  0
   -4.0720   -5.5380    2.0290 C   0  0  0  0  0  0  0  0  0  0  0  0
   -4.3710   -5.0700    3.1780 O   0  0  0  0  0  0  0  0  0  0  0  0
   -3.2350   -4.7190    1.1480 C   0  0  0  0  0  0  0  0  0  0  0  0
   -1.8490   -4.9020    1.2440 C   0  0  0  0  0  3  0  0  0  0  0  0
   -0.9960   -4.0740    0.4810 C   0  0  0  0  0  3  0  0  0  0  0  0
   -1.5220   -3.0580   -0.2520 C   0  0  0  0  0  3  0  0  0  0  0  0
   -2.8850   -2.8190   -0.3120 C   0  0  0  0  0  3  0  0  0  0  0  0
   -3.7690   -3.6380    0.4190 C   0  0  0  0  0  3  0  0  0  0  0  0
   -2.6930   -7.6560    3.3280 O   0  0  0  0  0  0  0  0  0  0  0  0
   -1.7460   -7.6780    3.0400 H   0  0  0  0  0  0  0  0  0  0  0  0
  1  6  1  0  0  0  0
  2  3  1  0  0  0  0
  2  1  2  0  0  0  0
  3  4  2  0  0  0  0
  4  9  1  0  0  0  0
  4  5  1  0  0  0  0
  5 17  1  0  0  0  0
  6  5  2  0  0  0  0
  8  1  1  0  0  0  0
  8  7  1  0  0  0  0
  9 10  2  0  0  0  0
 11 12  1  0  0  0  0
 11  9  1  0  0  0  0
 13 12  2  0  0  0  0
 14 13  1  0  0  0  0
 15 14  2  0  0  0  0
 15 16  1  0  0  0  0
 16 11  2  0  0  0  0
 18 17  1  0  0  0  0
M  END
>  <MODEL>
9

>  <REMARK>
 VINA RESULT:      -4.3      4.452      6.965
  Name = bgox31_4_ligand
  5 active torsions:
  status: ('A' for Active; 'I' for Inactive)
    1  A    between atoms: C_1  and  O_2
    2  A    between atoms: O_2  and  C_3
    3  A    between atoms: C_6  and  C_7
    4  A    between atoms: C_7  and  C_9
    5  A    between atoms: C_15  and  O_16
                            x       y       z     vdW  Elec       q    Type
                         _______ _______ _______ _____ _____    ______ ____

>  <TORSDO>
F 4

$$$$
