bgox31_3_dockpose1
     RDKit          3D

 17 18  0  0  0  0  0  0  0  0999 V2000
   -0.9170    1.1650  -12.7420 C   0  0  0  0  0  0  0  0  0  0  0  0
   -0.7810    0.0230  -11.9450 O   0  0  0  0  0  0  0  0  0  0  0  0
   -0.5770    0.1610  -10.5600 C   0  0  0  0  0  0  0  0  0  0  0  0
   -1.6550    0.1260   -9.7150 C   0  0  0  0  0  0  0  0  0  0  0  0
   -1.4760    0.2620   -8.3430 C   0  0  0  0  0  0  0  0  0  0  0  0
   -0.2410    0.4850   -7.7970 C   0  0  0  0  0  0  0  0  0  0  0  0
   -0.0340    0.6070   -6.3160 C   0  0  0  0  0  0  0  0  0  0  0  0
    0.8840   -0.0020   -5.7850 O   0  0  0  0  0  0  0  0  0  0  0  0
   -0.9270    1.4460   -5.4410 C   0  0  0  0  0  0  0  0  0  0  0  0
   -1.0450    2.7880   -5.6920 C   0  0  0  0  0  0  0  0  0  0  0  0
   -1.8420    3.5400   -4.8660 C   0  0  0  0  0  0  0  0  0  0  0  0
   -2.5890    2.9300   -3.9120 C   0  0  0  0  0  0  0  0  0  0  0  0
   -2.5450    1.5350   -3.6880 C   0  0  0  0  0  0  0  0  0  0  0  0
   -1.6560    0.8190   -4.4710 C   0  0  0  0  0  0  0  0  0  0  0  0
    0.8550    0.5400   -8.6770 C   0  0  0  0  0  0  0  0  0  0  0  0
    2.1000    0.6900   -8.0720 O   0  0  0  0  0  0  0  0  0  0  0  0
    0.7090    0.3720  -10.0100 C   0  0  0  0  0  0  0  0  0  0  0  0
  2  1  1  0
  3  2  1  0
  4  3  1  0
  5  4  2  0
  6  5  1  0
  7  6  1  0
  8  7  2  0
  9  7  1  0
 10  9  2  0
 11 10  1  0
 12 11  2  0
 13 12  1  0
 14 13  2  0
 14  9  1  0
 15  6  2  0
 16 15  1  0
 17 15  1  0
 17  3  2  0
M  END
$$$$
