shuffle_control_ligand
     RDKit          3D

 44 44  0  0  0  0  0  0  0  0999 V2000
    6.8190   -4.2750    2.9870 C   0  0  0  0  0  0  0  0  0  0  0  0
    7.2300   -4.3670    1.5440 C   0  0  0  0  0  0  0  0  0  0  0  0
    6.2840   -3.6210    0.6400 C   0  0  0  0  0  0  0  0  0  0  0  0
    6.7210   -3.6600   -0.7890 C   0  0  0  0  0  0  0  0  0  0  0  0
    5.7500   -3.0060   -1.7450 C   0  0  2  0  0  0  0  0  0  0  0  0
    6.4270   -2.8280   -3.0950 C   0  0  0  0  0  0  0  0  0  0  0  0
    5.8300   -1.7770   -3.9670 C   0  0  0  0  0  0  0  0  0  0  0  0
    5.3820   -1.7470   -1.2200 O   0  0  0  0  0  0  0  0  0  0  0  0
    4.1170   -1.5090   -0.8580 C   0  0  0  0  0  0  0  0  0  0  0  0
    3.2550   -2.3360   -0.9920 O   0  0  0  0  0  0  0  0  0  0  0  0
    3.8990   -0.1560   -0.2930 C   0  0  0  0  0  0  0  0  0  0  0  0
    2.6790    0.2390    0.0840 C   0  0  0  0  0  0  0  0  0  0  0  0
    2.3760    1.5830    0.6300 C   0  0  0  0  0  0  0  0  0  0  0  0
    3.3570    2.4670    0.9960 C   0  0  0  0  0  0  0  0  0  0  0  0
    3.0280    3.7200    1.5030 C   0  0  0  0  0  0  0  0  0  0  0  0
    1.7160    4.0890    1.6470 C   0  0  0  0  0  0  0  0  0  0  0  0
    1.3290    5.3040    2.1310 O   0  0  0  0  0  0  0  0  0  0  0  0
    2.3020    6.2490    2.5340 C   0  0  0  0  0  0  0  0  0  0  0  0
    0.7290    3.2060    1.2840 C   0  0  0  0  0  0  0  0  0  0  0  0
    1.0560    1.9530    0.7790 C   0  0  0  0  0  0  0  0  0  0  0  0
    7.6903   -4.4700    3.6296 H   0  0  0  0  0  0  0  0  0  0  0  0
    6.4292   -3.2674    3.1937 H   0  0  0  0  0  0  0  0  0  0  0  0
    6.0368   -5.0203    3.1937 H   0  0  0  0  0  0  0  0  0  0  0  0
    8.2377   -3.9401    1.4337 H   0  0  0  0  0  0  0  0  0  0  0  0
    7.2136   -5.4276    1.2526 H   0  0  0  0  0  0  0  0  0  0  0  0
    5.2859   -4.0767    0.7179 H   0  0  0  0  0  0  0  0  0  0  0  0
    6.2693   -2.5688    0.9604 H   0  0  0  0  0  0  0  0  0  0  0  0
    7.6881   -3.1421   -0.8696 H   0  0  0  0  0  0  0  0  0  0  0  0
    6.7844   -4.7204   -1.0744 H   0  0  0  0  0  0  0  0  0  0  0  0
    4.8530   -3.6301   -1.8712 H   0  0  0  0  0  0  0  0  0  0  0  0
    7.4801   -2.5651   -2.9163 H   0  0  0  0  0  0  0  0  0  0  0  0
    6.2986   -3.7802   -3.6305 H   0  0  0  0  0  0  0  0  0  0  0  0
    5.3834   -0.9909   -3.3405 H   0  0  0  0  0  0  0  0  0  0  0  0
    6.6139   -1.3386   -4.6021 H   0  0  0  0  0  0  0  0  0  0  0  0
    5.0520   -2.2258   -4.6021 H   0  0  0  0  0  0  0  0  0  0  0  0
    4.7511    0.5309   -0.1827 H   0  0  0  0  0  0  0  0  0  0  0  0
    1.8498   -0.4767   -0.0171 H   0  0  0  0  0  0  0  0  0  0  0  0
    4.4143    2.1833    0.8879 H   0  0  0  0  0  0  0  0  0  0  0  0
    3.8267    4.4196    1.7904 H   0  0  0  0  0  0  0  0  0  0  0  0
    2.3422    6.2881    3.6326 H   0  0  0  0  0  0  0  0  0  0  0  0
    3.2858    5.9525    2.1414 H   0  0  0  0  0  0  0  0  0  0  0  0
    2.0343    7.2411    2.1414 H   0  0  0  0  0  0  0  0  0  0  0  0
   -0.3275    3.4922    1.3936 H   0  0  0  0  0  0  0  0  0  0  0  0
    0.2567    1.2521    0.4964 H   0  0  0  0  0  0  0  0  0  0  0  0
  2  1  1  0
  3  2  1  0
  4  3  1  0
  5  4  1  0
  6  5  1  0
  7  6  1  0
  8  5  1  0
  9  8  1  0
 10  9  2  0
 11  9  1  0
 12 11  2  3
 13 12  1  0
 14 13  1  0
 15 14  2  0
 16 15  1  0
 17 16  1  0
 18 17  1  0
 19 16  2  0
 20 19  1  0
 20 13  2  0
  1 21  1  0
  1 22  1  0
  1 23  1  0
  2 24  1  0
  2 25  1  0
  3 26  1  0
  3 27  1  0
  4 28  1  0
  4 29  1  0
  5 30  1  6
  6 31  1  0
  6 32  1  0
  7 33  1  0
  7 34  1  0
  7 35  1  0
 11 36  1  0
 12 37  1  0
 14 38  1  0
 15 39  1  0
 18 40  1  0
 18 41  1  0
 18 42  1  0
 19 43  1  0
 20 44  1  0
M  END
$$$$
