s3_esm2_f4_pose0_reference
     RDKit          3D

 20 20  0  0  0  0  0  0  0  0999 V2000
   -1.1710    5.7180    6.9630 C   0  0  0  0  0  0  0  0  0  0  0  0
   -2.2770    4.7050    7.2750 C   0  0  0  0  0  0  0  0  0  0  0  0
   -2.0390    3.4150    6.5310 C   0  0  0  0  0  0  0  0  0  0  0  0
   -3.1520    2.4360    6.7790 C   0  0  0  0  0  0  0  0  0  0  0  0
   -3.0810    1.2550    5.8210 C   0  0  2  0  0  0  0  0  0  0  0  0
   -4.4740    0.8940    5.3620 C   0  0  0  0  0  0  0  0  0  0  0  0
   -4.7350   -0.5800    5.2670 C   0  0  0  0  0  0  0  0  0  0  0  0
   -2.4850    0.1540    6.4820 O   0  0  0  0  0  0  0  0  0  0  0  0
   -1.2280   -0.2250    6.1340 C   0  0  0  0  0  0  0  0  0  0  0  0
   -0.5130    0.4790    5.4740 O   0  0  0  0  0  0  0  0  0  0  0  0
   -0.8330   -1.5520    6.5970 C   0  0  0  0  0  0  0  0  0  0  0  0
   -1.5270   -2.1810    7.5380 C   0  0  0  0  0  0  0  0  0  0  0  0
   -1.3070   -3.5980    7.9010 C   0  0  0  0  0  0  0  0  0  0  0  0
   -0.5420   -4.4300    7.1090 C   0  0  0  0  0  0  0  0  0  0  0  0
   -0.3820   -5.7590    7.4560 C   0  0  0  0  0  0  0  0  0  0  0  0
   -0.9740   -6.2660    8.5740 C   0  0  0  0  0  0  0  0  0  0  0  0
   -0.8030   -7.5720    8.8740 O   0  0  0  0  0  0  0  0  0  0  0  0
   -1.6610   -8.1990    9.8130 C   0  0  0  0  0  0  0  0  0  0  0  0
   -1.7330   -5.4340    9.3710 C   0  0  0  0  0  0  0  0  0  0  0  0
   -1.8930   -4.1070    9.0290 C   0  0  0  0  0  0  0  0  0  0  0  0
  2  1  1  0
  3  2  1  0
  4  3  1  0
  5  4  1  1
  6  5  1  0
  7  6  1  0
  8  5  1  0
  9  8  1  0
 10  9  2  0
 11  9  1  0
 12 11  2  3
 13 12  1  0
 14 13  1  0
 15 14  2  0
 16 15  1  0
 17 16  1  0
 18 17  1  0
 19 16  2  0
 20 19  1  0
 20 13  2  0
M  END
>  <structure>  (1) 
s3_esm2_f4

>  <pose>  (1) 
0

>  <is_reference>  (1) 
1

>  <rmsd_to_reference_A>  (1) 
0.000

>  <vina_score>  (1) 


$$$$
s3_esm2_f4_pose1
     RDKit          3D

 20 20  0  0  0  0  0  0  0  0999 V2000
   -3.1760   -2.5570   10.6690 C   0  0  0  0  0  0  0  0  0  0  0  0
   -2.4260   -3.7820   10.1360 C   0  0  0  0  0  0  0  0  0  0  0  0
   -2.7520   -5.0020   10.9600 C   0  0  0  0  0  0  0  0  0  0  0  0
   -1.7460   -6.0950   10.7270 C   0  0  0  0  0  0  0  0  0  0  0  0
   -1.7960   -6.6030    9.2930 C   0  0  2  0  0  0  0  0  0  0  0  0
   -2.6690   -7.8340    9.2250 C   0  0  0  0  0  0  0  0  0  0  0  0
   -1.9460   -9.1240    9.4780 C   0  0  0  0  0  0  0  0  0  0  0  0
   -0.4830   -6.9120    8.8620 O   0  0  0  0  0  0  0  0  0  0  0  0
   -0.0090   -6.3430    7.7240 C   0  0  0  0  0  0  0  0  0  0  0  0
    0.5670   -6.9830    6.8870 O   0  0  0  0  0  0  0  0  0  0  0  0
   -0.2290   -4.9040    7.6160 C   0  0  0  0  0  0  0  0  0  0  0  0
   -0.8410   -4.3840    6.5580 C   0  0  0  0  0  0  0  0  0  0  0  0
   -1.2770   -2.9730    6.4820 C   0  0  0  0  0  0  0  0  0  0  0  0
   -2.6150   -2.6380    6.4450 C   0  0  0  0  0  0  0  0  0  0  0  0
   -2.9930   -1.3120    6.3390 C   0  0  0  0  0  0  0  0  0  0  0  0
   -2.0590   -0.3230    6.2680 C   0  0  0  0  0  0  0  0  0  0  0  0
   -2.4660    0.9600    6.1550 O   0  0  0  0  0  0  0  0  0  0  0  0
   -3.0900    1.6030    7.2550 C   0  0  0  0  0  0  0  0  0  0  0  0
   -0.7200   -0.6550    6.3120 C   0  0  0  0  0  0  0  0  0  0  0  0
   -0.3400   -1.9770    6.4200 C   0  0  0  0  0  0  0  0  0  0  0  0
  2  1  1  0
  3  2  1  0
  4  3  1  0
  5  4  1  1
  6  5  1  0
  7  6  1  0
  8  5  1  0
  9  8  1  0
 10  9  2  0
 11  9  1  0
 12 11  2  3
 13 12  1  0
 14 13  1  0
 15 14  2  0
 16 15  1  0
 17 16  1  0
 18 17  1  0
 19 16  2  0
 20 19  1  0
 20 13  2  0
M  END
>  <structure>  (2) 
s3_esm2_f4

>  <pose>  (2) 
1

>  <is_reference>  (2) 
0

>  <rmsd_to_reference_A>  (2) 
7.409

>  <vina_score>  (2) 
-6.0

$$$$
s3_esm2_f4_pose2
     RDKit          3D

 20 20  0  0  0  0  0  0  0  0999 V2000
   -4.1410   -8.4450   10.2310 C   0  0  0  0  0  0  0  0  0  0  0  0
   -3.1560   -7.7220    9.3080 C   0  0  0  0  0  0  0  0  0  0  0  0
   -2.3130   -6.7480   10.0920 C   0  0  0  0  0  0  0  0  0  0  0  0
   -0.9370   -7.3010   10.3380 C   0  0  0  0  0  0  0  0  0  0  0  0
   -0.3900   -8.0060    9.1050 C   0  0  2  0  0  0  0  0  0  0  0  0
    0.3080   -9.2800    9.5210 C   0  0  0  0  0  0  0  0  0  0  0  0
   -0.0700   -9.7800   10.8840 C   0  0  0  0  0  0  0  0  0  0  0  0
    0.5180   -7.1470    8.4410 O   0  0  0  0  0  0  0  0  0  0  0  0
    0.2540   -6.7630    7.1660 C   0  0  0  0  0  0  0  0  0  0  0  0
    0.6400   -7.3940    6.2200 O   0  0  0  0  0  0  0  0  0  0  0  0
   -0.5040   -5.5210    7.0390 C   0  0  0  0  0  0  0  0  0  0  0  0
   -0.2680   -4.4930    7.8450 C   0  0  0  0  0  0  0  0  0  0  0  0
   -0.8480   -3.1480    7.6390 C   0  0  0  0  0  0  0  0  0  0  0  0
   -0.4900   -2.3720    6.5560 C   0  0  0  0  0  0  0  0  0  0  0  0
   -1.0230   -1.1050    6.4080 C   0  0  0  0  0  0  0  0  0  0  0  0
   -1.9000   -0.6040    7.3220 C   0  0  0  0  0  0  0  0  0  0  0  0
   -2.3910    0.6430    7.1490 O   0  0  0  0  0  0  0  0  0  0  0  0
   -1.5520    1.6680    6.6440 C   0  0  0  0  0  0  0  0  0  0  0  0
   -2.2650   -1.3810    8.4020 C   0  0  0  0  0  0  0  0  0  0  0  0
   -1.7370   -2.6470    8.5520 C   0  0  0  0  0  0  0  0  0  0  0  0
  2  1  1  0
  3  2  1  0
  4  3  1  0
  5  4  1  1
  6  5  1  0
  7  6  1  0
  8  5  1  0
  9  8  1  0
 10  9  2  0
 11  9  1  0
 12 11  2  3
 13 12  1  0
 14 13  1  0
 15 14  2  0
 16 15  1  0
 17 16  1  0
 18 17  1  0
 19 16  2  0
 20 19  1  0
 20 13  2  0
M  END
>  <structure>  (3) 
s3_esm2_f4

>  <pose>  (3) 
2

>  <is_reference>  (3) 
0

>  <rmsd_to_reference_A>  (3) 
8.531

>  <vina_score>  (3) 
-5.7

$$$$
s3_esm2_f4_pose3
     RDKit          3D

 20 20  0  0  0  0  0  0  0  0999 V2000
   -3.3500   -7.4390   11.9130 C   0  0  0  0  0  0  0  0  0  0  0  0
   -2.7690   -6.0320   11.7450 C   0  0  0  0  0  0  0  0  0  0  0  0
   -2.1280   -5.8820   10.3880 C   0  0  0  0  0  0  0  0  0  0  0  0
   -2.3510   -7.1080    9.5480 C   0  0  0  0  0  0  0  0  0  0  0  0
   -1.0580   -7.5850    8.9020 C   0  0  2  0  0  0  0  0  0  0  0  0
   -0.2960   -8.4500    9.8780 C   0  0  0  0  0  0  0  0  0  0  0  0
   -0.9440   -9.7700   10.1760 C   0  0  0  0  0  0  0  0  0  0  0  0
   -0.2780   -6.4620    8.5350 O   0  0  0  0  0  0  0  0  0  0  0  0
   -0.0620   -6.2080    7.2180 C   0  0  0  0  0  0  0  0  0  0  0  0
    0.6380   -6.9130    6.5430 O   0  0  0  0  0  0  0  0  0  0  0  0
   -0.7190   -5.0100    6.7040 C   0  0  0  0  0  0  0  0  0  0  0  0
   -0.6830   -3.8690    7.3820 C   0  0  0  0  0  0  0  0  0  0  0  0
   -1.1440   -2.5780    6.8260 C   0  0  0  0  0  0  0  0  0  0  0  0
   -0.2490   -1.5820    6.4900 C   0  0  0  0  0  0  0  0  0  0  0  0
   -0.7110   -0.3730    6.0040 C   0  0  0  0  0  0  0  0  0  0  0  0
   -2.0460   -0.1440    5.8530 C   0  0  0  0  0  0  0  0  0  0  0  0
   -2.4600    1.0540    5.3850 O   0  0  0  0  0  0  0  0  0  0  0  0
   -3.8430    1.2940    5.1850 C   0  0  0  0  0  0  0  0  0  0  0  0
   -2.9420   -1.1410    6.1800 C   0  0  0  0  0  0  0  0  0  0  0  0
   -2.4840   -2.3500    6.6630 C   0  0  0  0  0  0  0  0  0  0  0  0
  2  1  1  0
  3  2  1  0
  4  3  1  0
  5  4  1  1
  6  5  1  0
  7  6  1  0
  8  5  1  0
  9  8  1  0
 10  9  2  0
 11  9  1  0
 12 11  2  3
 13 12  1  0
 14 13  1  0
 15 14  2  0
 16 15  1  0
 17 16  1  0
 18 17  1  0
 19 16  2  0
 20 19  1  0
 20 13  2  0
M  END
>  <structure>  (4) 
s3_esm2_f4

>  <pose>  (4) 
3

>  <is_reference>  (4) 
0

>  <rmsd_to_reference_A>  (4) 
8.292

>  <vina_score>  (4) 
-5.7

$$$$
s3_esm2_f4_pose4
     RDKit          3D

 20 20  0  0  0  0  0  0  0  0999 V2000
    0.4050  -10.1530    7.3760 C   0  0  0  0  0  0  0  0  0  0  0  0
    0.6230  -10.4430    8.8650 C   0  0  0  0  0  0  0  0  0  0  0  0
    0.3130   -9.2220    9.6930 C   0  0  0  0  0  0  0  0  0  0  0  0
   -1.0780   -8.7230    9.4190 C   0  0  0  0  0  0  0  0  0  0  0  0
   -1.1570   -7.2060    9.5150 C   0  0  2  0  0  0  0  0  0  0  0  0
   -2.3570   -6.8150   10.3450 C   0  0  0  0  0  0  0  0  0  0  0  0
   -2.3880   -5.3720   10.7510 C   0  0  0  0  0  0  0  0  0  0  0  0
   -1.2670   -6.6620    8.2120 O   0  0  0  0  0  0  0  0  0  0  0  0
   -0.2080   -6.0000    7.6800 C   0  0  0  0  0  0  0  0  0  0  0  0
    0.8030   -6.5670    7.3660 O   0  0  0  0  0  0  0  0  0  0  0  0
   -0.3840   -4.5560    7.5500 C   0  0  0  0  0  0  0  0  0  0  0  0
   -0.9490   -4.0330    6.4690 C   0  0  0  0  0  0  0  0  0  0  0  0
   -1.3440   -2.6110    6.3650 C   0  0  0  0  0  0  0  0  0  0  0  0
   -0.3990   -1.6070    6.3080 C   0  0  0  0  0  0  0  0  0  0  0  0
   -0.7980   -0.2850    6.2450 C   0  0  0  0  0  0  0  0  0  0  0  0
   -2.1200    0.0470    6.2420 C   0  0  0  0  0  0  0  0  0  0  0  0
   -2.4700    1.3510    6.1910 O   0  0  0  0  0  0  0  0  0  0  0  0
   -1.6350    2.3310    6.7840 C   0  0  0  0  0  0  0  0  0  0  0  0
   -3.0670   -0.9550    6.2920 C   0  0  0  0  0  0  0  0  0  0  0  0
   -2.6720   -2.2760    6.3520 C   0  0  0  0  0  0  0  0  0  0  0  0
  2  1  1  0
  3  2  1  0
  4  3  1  0
  5  4  1  6
  6  5  1  0
  7  6  1  0
  8  5  1  0
  9  8  1  0
 10  9  2  0
 11  9  1  0
 12 11  2  3
 13 12  1  0
 14 13  1  0
 15 14  2  0
 16 15  1  0
 17 16  1  0
 18 17  1  0
 19 16  2  0
 20 19  1  0
 20 13  2  0
M  END
>  <structure>  (5) 
s3_esm2_f4

>  <pose>  (5) 
4

>  <is_reference>  (5) 
0

>  <rmsd_to_reference_A>  (5) 
8.781

>  <vina_score>  (5) 
-5.5

$$$$
s3_esm2_f4_pose5
     RDKit          3D

 20 20  0  0  0  0  0  0  0  0999 V2000
   -3.7760   -2.0070   11.3330 C   0  0  0  0  0  0  0  0  0  0  0  0
   -2.8950   -2.2310   10.1000 C   0  0  0  0  0  0  0  0  0  0  0  0
   -2.8680   -0.9950    9.2370 C   0  0  0  0  0  0  0  0  0  0  0  0
   -3.5440   -1.2440    7.9180 C   0  0  0  0  0  0  0  0  0  0  0  0
   -2.6300   -0.9050    6.7490 C   0  0  2  0  0  0  0  0  0  0  0  0
   -3.4460   -0.3070    5.6270 C   0  0  0  0  0  0  0  0  0  0  0  0
   -2.7360    0.7520    4.8370 C   0  0  0  0  0  0  0  0  0  0  0  0
   -1.9830   -2.0840    6.3050 O   0  0  0  0  0  0  0  0  0  0  0  0
   -0.6890   -2.3000    6.6560 C   0  0  0  0  0  0  0  0  0  0  0  0
    0.2080   -1.6360    6.2110 O   0  0  0  0  0  0  0  0  0  0  0  0
   -0.4770   -3.4080    7.5820 C   0  0  0  0  0  0  0  0  0  0  0  0
   -1.3420   -4.4120    7.6540 C   0  0  0  0  0  0  0  0  0  0  0  0
   -1.0840   -5.6560    8.4120 C   0  0  0  0  0  0  0  0  0  0  0  0
   -1.7350   -5.9190    9.6000 C   0  0  0  0  0  0  0  0  0  0  0  0
   -1.4480   -7.0740   10.3040 C   0  0  0  0  0  0  0  0  0  0  0  0
   -0.5240   -7.9630    9.8430 C   0  0  0  0  0  0  0  0  0  0  0  0
   -0.2630   -9.0750   10.5640 O   0  0  0  0  0  0  0  0  0  0  0  0
    0.5970  -10.0720   10.0390 C   0  0  0  0  0  0  0  0  0  0  0  0
    0.1220   -7.7060    8.6510 C   0  0  0  0  0  0  0  0  0  0  0  0
   -0.1630   -6.5550    7.9450 C   0  0  0  0  0  0  0  0  0  0  0  0
  2  1  1  0
  3  2  1  0
  4  3  1  0
  5  4  1  1
  6  5  1  0
  7  6  1  0
  8  5  1  0
  9  8  1  0
 10  9  2  0
 11  9  1  0
 12 11  2  3
 13 12  1  0
 14 13  1  0
 15 14  2  0
 16 15  1  0
 17 16  1  0
 18 17  1  0
 19 16  2  0
 20 19  1  0
 20 13  2  0
M  END
>  <structure>  (6) 
s3_esm2_f4

>  <pose>  (6) 
5

>  <is_reference>  (6) 
0

>  <rmsd_to_reference_A>  (6) 
3.643

>  <vina_score>  (6) 
-5.5

$$$$
s3_esm2_f4_pose6
     RDKit          3D

 20 20  0  0  0  0  0  0  0  0999 V2000
   -6.2490   -1.8540    6.3890 C   0  0  0  0  0  0  0  0  0  0  0  0
   -5.6840   -1.3260    5.0670 C   0  0  0  0  0  0  0  0  0  0  0  0
   -4.2380   -0.9280    5.2300 C   0  0  0  0  0  0  0  0  0  0  0  0
   -4.0050   -0.2800    6.5660 C   0  0  0  0  0  0  0  0  0  0  0  0
   -2.7150   -0.7720    7.2080 C   0  0  2  0  0  0  0  0  0  0  0  0
   -1.9160    0.4100    7.7040 C   0  0  0  0  0  0  0  0  0  0  0  0
   -1.8110    1.5440    6.7270 C   0  0  0  0  0  0  0  0  0  0  0  0
   -1.9670   -1.5000    6.2520 O   0  0  0  0  0  0  0  0  0  0  0  0
   -0.7500   -1.9930    6.6000 C   0  0  0  0  0  0  0  0  0  0  0  0
    0.2670   -1.5660    6.1250 O   0  0  0  0  0  0  0  0  0  0  0  0
   -0.7810   -3.0890    7.5640 C   0  0  0  0  0  0  0  0  0  0  0  0
   -1.1010   -4.3210    7.1860 C   0  0  0  0  0  0  0  0  0  0  0  0
   -0.9510   -5.5050    8.0600 C   0  0  0  0  0  0  0  0  0  0  0  0
   -1.7390   -5.6730    9.1800 C   0  0  0  0  0  0  0  0  0  0  0  0
   -1.5530   -6.7730    9.9970 C   0  0  0  0  0  0  0  0  0  0  0  0
   -0.5940   -7.7000    9.7140 C   0  0  0  0  0  0  0  0  0  0  0  0
   -0.4350   -8.7550   10.5420 O   0  0  0  0  0  0  0  0  0  0  0  0
   -1.2390   -9.9110   10.3750 C   0  0  0  0  0  0  0  0  0  0  0  0
    0.1900   -7.5370    8.5910 C   0  0  0  0  0  0  0  0  0  0  0  0
    0.0050   -6.4420    7.7720 C   0  0  0  0  0  0  0  0  0  0  0  0
  2  1  1  0
  3  2  1  0
  4  3  1  0
  5  4  1  6
  6  5  1  0
  7  6  1  0
  8  5  1  0
  9  8  1  0
 10  9  2  0
 11  9  1  0
 12 11  2  3
 13 12  1  0
 14 13  1  0
 15 14  2  0
 16 15  1  0
 17 16  1  0
 18 17  1  0
 19 16  2  0
 20 19  1  0
 20 13  2  0
M  END
>  <structure>  (7) 
s3_esm2_f4

>  <pose>  (7) 
6

>  <is_reference>  (7) 
0

>  <rmsd_to_reference_A>  (7) 
3.555

>  <vina_score>  (7) 
-5.1

$$$$
s3_esm2_f4_pose7
     RDKit          3D

 20 20  0  0  0  0  0  0  0  0999 V2000
   -6.8400   -1.3990    8.3700 C   0  0  0  0  0  0  0  0  0  0  0  0
   -5.8350   -1.3290    9.5240 C   0  0  0  0  0  0  0  0  0  0  0  0
   -4.4630   -0.9720    9.0110 C   0  0  0  0  0  0  0  0  0  0  0  0
   -4.5520   -0.1910    7.7300 C   0  0  0  0  0  0  0  0  0  0  0  0
   -3.4190   -0.5470    6.7780 C   0  0  2  0  0  0  0  0  0  0  0  0
   -3.8480   -1.6930    5.8920 C   0  0  0  0  0  0  0  0  0  0  0  0
   -5.0810   -1.4240    5.0810 C   0  0  0  0  0  0  0  0  0  0  0  0
   -2.2770   -0.9140    7.5290 O   0  0  0  0  0  0  0  0  0  0  0  0
   -1.1510   -1.3010    6.8750 C   0  0  0  0  0  0  0  0  0  0  0  0
   -0.6300   -0.6070    6.0450 O   0  0  0  0  0  0  0  0  0  0  0  0
   -0.6500   -2.6230    7.2380 C   0  0  0  0  0  0  0  0  0  0  0  0
   -1.3720   -3.4430    7.9930 C   0  0  0  0  0  0  0  0  0  0  0  0
   -1.0190   -4.8610    8.2220 C   0  0  0  0  0  0  0  0  0  0  0  0
   -1.5900   -5.5850    9.2490 C   0  0  0  0  0  0  0  0  0  0  0  0
   -1.2150   -6.8990    9.4600 C   0  0  0  0  0  0  0  0  0  0  0  0
   -0.2800   -7.4950    8.6670 C   0  0  0  0  0  0  0  0  0  0  0  0
    0.0680   -8.7770    8.9110 O   0  0  0  0  0  0  0  0  0  0  0  0
   -0.1570   -9.3380   10.1940 C   0  0  0  0  0  0  0  0  0  0  0  0
    0.2870   -6.7750    7.6360 C   0  0  0  0  0  0  0  0  0  0  0  0
   -0.0870   -5.4650    7.4210 C   0  0  0  0  0  0  0  0  0  0  0  0
  2  1  1  0
  3  2  1  0
  4  3  1  0
  5  4  1  1
  6  5  1  0
  7  6  1  0
  8  5  1  0
  9  8  1  0
 10  9  2  0
 11  9  1  0
 12 11  2  3
 13 12  1  0
 14 13  1  0
 15 14  2  0
 16 15  1  0
 17 16  1  0
 18 17  1  0
 19 16  2  0
 20 19  1  0
 20 13  2  0
M  END
>  <structure>  (8) 
s3_esm2_f4

>  <pose>  (8) 
7

>  <is_reference>  (8) 
0

>  <rmsd_to_reference_A>  (8) 
3.307

>  <vina_score>  (8) 
-5.1

$$$$
s3_esm2_f4_pose8
     RDKit          3D

 20 20  0  0  0  0  0  0  0  0999 V2000
    1.8850   -6.8950    0.6340 C   0  0  0  0  0  0  0  0  0  0  0  0
    2.5070   -7.1670    2.0070 C   0  0  0  0  0  0  0  0  0  0  0  0
    2.0490   -8.5000    2.5420 C   0  0  0  0  0  0  0  0  0  0  0  0
    1.8280   -8.4380    4.0280 C   0  0  0  0  0  0  0  0  0  0  0  0
    0.3490   -8.3200    4.3680 C   0  0  2  0  0  0  0  0  0  0  0  0
   -0.4760   -8.8840    3.2350 C   0  0  0  0  0  0  0  0  0  0  0  0
   -1.5500   -7.9670    2.7310 C   0  0  0  0  0  0  0  0  0  0  0  0
    0.0260   -6.9560    4.5730 O   0  0  0  0  0  0  0  0  0  0  0  0
   -0.1590   -6.5040    5.8410 C   0  0  0  0  0  0  0  0  0  0  0  0
    0.3100   -7.0700    6.7910 O   0  0  0  0  0  0  0  0  0  0  0  0
   -0.9860   -5.3070    5.9550 C   0  0  0  0  0  0  0  0  0  0  0  0
   -0.5050   -4.1940    6.4970 C   0  0  0  0  0  0  0  0  0  0  0  0
   -1.2130   -2.8960    6.4540 C   0  0  0  0  0  0  0  0  0  0  0  0
   -0.5220   -1.7020    6.4910 C   0  0  0  0  0  0  0  0  0  0  0  0
   -1.2130   -0.5040    6.4840 C   0  0  0  0  0  0  0  0  0  0  0  0
   -2.5750   -0.4830    6.4430 C   0  0  0  0  0  0  0  0  0  0  0  0
   -3.2150    0.7070    6.4490 O   0  0  0  0  0  0  0  0  0  0  0  0
   -3.5280    1.3460    5.2220 C   0  0  0  0  0  0  0  0  0  0  0  0
   -3.2670   -1.6760    6.3990 C   0  0  0  0  0  0  0  0  0  0  0  0
   -2.5810   -2.8720    6.4030 C   0  0  0  0  0  0  0  0  0  0  0  0
  2  1  1  0
  3  2  1  0
  4  3  1  0
  5  4  1  6
  6  5  1  0
  7  6  1  0
  8  5  1  0
  9  8  1  0
 10  9  2  0
 11  9  1  0
 12 11  2  3
 13 12  1  0
 14 13  1  0
 15 14  2  0
 16 15  1  0
 17 16  1  0
 18 17  1  0
 19 16  2  0
 20 19  1  0
 20 13  2  0
M  END
>  <structure>  (9) 
s3_esm2_f4

>  <pose>  (9) 
8

>  <is_reference>  (9) 
0

>  <rmsd_to_reference_A>  (9) 
8.688

>  <vina_score>  (9) 
-5.0

$$$$
s3_esm2_f4_pose9
     RDKit          3D

 20 20  0  0  0  0  0  0  0  0999 V2000
   -3.0080    0.9770    3.7370 C   0  0  0  0  0  0  0  0  0  0  0  0
   -3.6240    0.7180    5.1150 C   0  0  0  0  0  0  0  0  0  0  0  0
   -3.7150   -0.7630    5.3850 C   0  0  0  0  0  0  0  0  0  0  0  0
   -4.1760   -1.0280    6.7900 C   0  0  0  0  0  0  0  0  0  0  0  0
   -3.0110   -1.3850    7.7030 C   0  0  2  0  0  0  0  0  0  0  0  0
   -3.1630   -0.6630    9.0200 C   0  0  0  0  0  0  0  0  0  0  0  0
   -3.1900   -1.5600   10.2220 C   0  0  0  0  0  0  0  0  0  0  0  0
   -1.7980   -1.0090    7.0780 O   0  0  0  0  0  0  0  0  0  0  0  0
   -0.8080   -1.9300    6.9470 C   0  0  0  0  0  0  0  0  0  0  0  0
    0.1300   -1.7540    6.2180 O   0  0  0  0  0  0  0  0  0  0  0  0
   -0.9890   -3.1460    7.7340 C   0  0  0  0  0  0  0  0  0  0  0  0
   -0.7450   -4.3410    7.2090 C   0  0  0  0  0  0  0  0  0  0  0  0
   -0.7080   -5.5870    8.0050 C   0  0  0  0  0  0  0  0  0  0  0  0
   -1.5460   -5.7730    9.0850 C   0  0  0  0  0  0  0  0  0  0  0  0
   -1.4650   -6.9340    9.8310 C   0  0  0  0  0  0  0  0  0  0  0  0
   -0.5620   -7.9050    9.5170 C   0  0  0  0  0  0  0  0  0  0  0  0
   -0.5050   -9.0210   10.2760 O   0  0  0  0  0  0  0  0  0  0  0  0
    0.5160   -9.9790   10.0480 C   0  0  0  0  0  0  0  0  0  0  0  0
    0.2720   -7.7250    8.4330 C   0  0  0  0  0  0  0  0  0  0  0  0
    0.1920   -6.5680    7.6850 C   0  0  0  0  0  0  0  0  0  0  0  0
  2  1  1  0
  3  2  1  0
  4  3  1  0
  5  4  1  6
  6  5  1  0
  7  6  1  0
  8  5  1  0
  9  8  1  0
 10  9  2  0
 11  9  1  0
 12 11  2  3
 13 12  1  0
 14 13  1  0
 15 14  2  0
 16 15  1  0
 17 16  1  0
 18 17  1  0
 19 16  2  0
 20 19  1  0
 20 13  2  0
M  END
>  <structure>  (10) 
s3_esm2_f4

>  <pose>  (10) 
9

>  <is_reference>  (10) 
0

>  <rmsd_to_reference_A>  (10) 
3.214

>  <vina_score>  (10) 
-4.9

$$$$
