s3_esm2_f4_pose0_reference
     RDKit          3D

 20 20  0  0  0  0  0  0  0  0999 V2000
   -1.1710    5.7180    6.9630 C   0  0  0  0  0  0  0  0  0  0  0  0
   -2.2770    4.7050    7.2750 C   0  0  0  0  0  0  0  0  0  0  0  0
   -2.0390    3.4150    6.5310 C   0  0  0  0  0  0  0  0  0  0  0  0
   -3.1520    2.4360    6.7790 C   0  0  0  0  0  0  0  0  0  0  0  0
   -3.0810    1.2550    5.8210 C   0  0  2  0  0  0  0  0  0  0  0  0
   -4.4740    0.8940    5.3620 C   0  0  0  0  0  0  0  0  0  0  0  0
   -4.7350   -0.5800    5.2670 C   0  0  0  0  0  0  0  0  0  0  0  0
   -2.4850    0.1540    6.4820 O   0  0  0  0  0  0  0  0  0  0  0  0
   -1.2280   -0.2250    6.1340 C   0  0  0  0  0  0  0  0  0  0  0  0
   -0.5130    0.4790    5.4740 O   0  0  0  0  0  0  0  0  0  0  0  0
   -0.8330   -1.5520    6.5970 C   0  0  0  0  0  0  0  0  0  0  0  0
   -1.5270   -2.1810    7.5380 C   0  0  0  0  0  0  0  0  0  0  0  0
   -1.3070   -3.5980    7.9010 C   0  0  0  0  0  0  0  0  0  0  0  0
   -0.5420   -4.4300    7.1090 C   0  0  0  0  0  0  0  0  0  0  0  0
   -0.3820   -5.7590    7.4560 C   0  0  0  0  0  0  0  0  0  0  0  0
   -0.9740   -6.2660    8.5740 C   0  0  0  0  0  0  0  0  0  0  0  0
   -0.8030   -7.5720    8.8740 O   0  0  0  0  0  0  0  0  0  0  0  0
   -1.6610   -8.1990    9.8130 C   0  0  0  0  0  0  0  0  0  0  0  0
   -1.7330   -5.4340    9.3710 C   0  0  0  0  0  0  0  0  0  0  0  0
   -1.8930   -4.1070    9.0290 C   0  0  0  0  0  0  0  0  0  0  0  0
  2  1  1  0
  3  2  1  0
  4  3  1  0
  5  4  1  1
  6  5  1  0
  7  6  1  0
  8  5  1  0
  9  8  1  0
 10  9  2  0
 11  9  1  0
 12 11  2  3
 13 12  1  0
 14 13  1  0
 15 14  2  0
 16 15  1  0
 17 16  1  0
 18 17  1  0
 19 16  2  0
 20 19  1  0
 20 13  2  0
M  END
>  <structure>  (1) 
s3_esm2_f4

>  <pose>  (1) 
0

>  <is_reference>  (1) 
1

>  <rmsd_to_reference_A>  (1) 
0.000

>  <vina_score>  (1) 


$$$$
