shuffle_control_esm0_ligand
     RDKit          3D

 20 20  0  0  0  0  0  0  0  0999 V2000
   -0.2450    6.4650    9.8840 C   0  0  0  0  0  0  0  0  0  0  0  0
    0.7770    7.4620    9.4930 C   0  0  0  0  0  0  0  0  0  0  0  0
    1.7250    6.9680    8.4680 C   0  0  0  0  0  0  0  0  0  0  0  0
    1.4870    7.5050    7.1250 C   0  0  0  0  0  0  0  0  0  0  0  0
    2.0560    6.6900    6.0050 C   0  0  2  0  0  0  0  0  0  0  0  0
    2.2480    7.4930    4.7380 C   0  0  0  0  0  0  0  0  0  0  0  0
    3.4850    8.2820    4.7560 C   0  0  0  0  0  0  0  0  0  0  0  0
    1.1430    5.6820    5.6940 O   0  0  0  0  0  0  0  0  0  0  0  0
    1.4700    4.4350    5.9690 C   0  0  0  0  0  0  0  0  0  0  0  0
    2.5730    4.0440    5.8790 O   0  0  0  0  0  0  0  0  0  0  0  0
    0.3110    3.6710    6.4120 C   0  0  0  0  0  0  0  0  0  0  0  0
    0.3240    3.1230    7.6800 C   0  0  0  0  0  0  0  0  0  0  0  0
   -0.8680    2.5760    8.2760 C   0  0  0  0  0  0  0  0  0  0  0  0
   -1.2150    2.9590    9.5340 C   0  0  0  0  0  0  0  0  0  0  0  0
   -2.3630    2.4930   10.1040 C   0  0  0  0  0  0  0  0  0  0  0  0
   -3.1780    1.6220    9.4230 C   0  0  0  0  0  0  0  0  0  0  0  0
   -4.3120    1.1940   10.0310 O   0  0  0  0  0  0  0  0  0  0  0  0
   -5.1160    0.2810    9.3260 C   0  0  0  0  0  0  0  0  0  0  0  0
   -2.8210    1.2240    8.1550 C   0  0  0  0  0  0  0  0  0  0  0  0
   -1.6750    1.6990    7.5930 C   0  0  0  0  0  0  0  0  0  0  0  0
  2  1  1  0
  3  2  1  0
  4  3  1  0
  5  4  1  6
  6  5  1  0
  7  6  1  0
  8  5  1  0
  9  8  1  0
 10  9  2  0
 11  9  1  0
 12 11  2  3
 13 12  1  0
 14 13  1  0
 15 14  2  0
 16 15  1  0
 17 16  1  0
 18 17  1  0
 19 16  2  0
 20 13  2  0
 20 19  1  0
M  END
$$$$
