bgox31_2_ligand
     RDKit          3D

 29 30  0  0  0  0  0  0  0  0999 V2000
    3.0648   -7.9231   -5.4482 C   0  0  0  0  0  0  0  0  0  0  0  0
    3.0651   -7.1028   -4.3064 O   0  0  0  0  0  0  0  0  0  0  0  0
    3.9418   -6.0908   -4.2885 C   0  0  0  0  0  0  0  0  0  0  0  0
    4.3037   -5.5381   -3.0566 C   0  0  0  0  0  0  0  0  0  0  0  0
    5.2332   -4.5305   -2.9991 C   0  0  0  0  0  0  0  0  0  0  0  0
    5.7822   -4.0828   -4.1692 C   0  0  0  0  0  0  0  0  0  0  0  0
    6.8213   -3.0024   -4.0812 C   0  0  0  0  0  0  0  0  0  0  0  0
    6.8585   -2.1865   -4.9601 O   0  0  0  0  0  0  0  0  0  0  0  0
    7.6726   -2.8533   -2.9373 C   0  0  0  0  0  0  0  0  0  0  0  0
    8.1811   -1.5975   -2.6991 C   0  0  0  0  0  0  0  0  0  0  0  0
    9.0535   -1.4307   -1.6470 C   0  0  0  0  0  0  0  0  0  0  0  0
    9.3729   -2.5143   -0.8646 C   0  0  0  0  0  0  0  0  0  0  0  0
    8.8986   -3.7125   -1.1071 C   0  0  0  0  0  0  0  0  0  0  0  0
    8.0173   -3.8820   -2.1540 C   0  0  0  0  0  0  0  0  0  0  0  0
    5.3954   -4.5915   -5.3978 C   0  0  0  0  0  0  0  0  0  0  0  0
    5.9280   -4.0573   -6.5076 O   0  0  0  0  0  0  0  0  0  0  0  0
    4.4686   -5.5881   -5.4418 C   0  0  0  0  0  0  0  0  0  0  0  0
    4.0708   -7.9326   -5.8931 H   0  0  0  0  0  0  0  0  0  0  0  0
    2.7800   -8.9469   -5.1640 H   0  0  0  0  0  0  0  0  0  0  0  0
    2.3436   -7.5318   -6.1808 H   0  0  0  0  0  0  0  0  0  0  0  0
    3.8420   -5.9120   -2.1308 H   0  0  0  0  0  0  0  0  0  0  0  0
    5.5299   -4.0929   -2.0345 H   0  0  0  0  0  0  0  0  0  0  0  0
    7.8971   -0.7459   -3.3347 H   0  0  0  0  0  0  0  0  0  0  0  0
    9.4891   -0.4431   -1.4355 H   0  0  0  0  0  0  0  0  0  0  0  0
   10.0476   -2.3719   -0.0076 H   0  0  0  0  0  0  0  0  0  0  0  0
    9.1991   -4.5687   -0.4854 H   0  0  0  0  0  0  0  0  0  0  0  0
    7.5914   -4.8773   -2.3480 H   0  0  0  0  0  0  0  0  0  0  0  0
    5.6676   -4.4035   -7.3977 H   0  0  0  0  0  0  0  0  0  0  0  0
    4.1428   -5.9898   -6.4128 H   0  0  0  0  0  0  0  0  0  0  0  0
  2  1  1  0
  3  2  1  0
  4  3  1  0
  5  4  2  0
  6  5  1  0
  7  6  1  0
  8  7  2  0
  9  7  1  0
 10  9  2  0
 11 10  1  0
 12 11  2  0
 13 12  1  0
 14 13  2  0
 14  9  1  0
 15  6  2  0
 16 15  1  0
 17 15  1  0
 17  3  2  0
  1 18  1  0
  1 19  1  0
  1 20  1  0
  4 21  1  0
  5 22  1  0
 10 23  1  0
 11 24  1  0
 12 25  1  0
 13 26  1  0
 14 27  1  0
 16 28  1  0
 17 29  1  0
M  END
$$$$
