bgox31_2_ligand
 OpenBabel10092621233D

 18 19  0  0  0  0  0  0  0  0999 V2000
    4.2660   -0.7990   -8.9670 C   0  0  0  0  0  0  0  0  0  0  0  0
    4.5340    0.5720   -8.9470 C   0  0  0  0  0  3  0  0  0  0  0  0
    4.9290    1.1820   -7.7830 C   0  0  0  0  0  3  0  0  0  0  0  0
    5.0580    0.4140   -6.6580 C   0  0  0  0  0  0  0  0  0  0  0  0
    4.8410   -0.9530   -6.6790 C   0  0  0  0  0  0  0  0  0  0  0  0
    4.4540   -1.5460   -7.8410 C   0  0  0  0  0  3  0  0  0  0  0  0
    3.0970   -0.5340  -10.9760 C   0  0  0  0  0  1  0  0  0  0  0  0
    3.8400   -1.3540  -10.1090 O   0  0  0  0  0  0  0  0  0  0  0  0
    5.4600    1.1060   -5.3870 C   0  0  0  0  0  0  0  0  0  0  0  0
    6.5290    0.8380   -4.9150 O   0  0  0  0  0  0  0  0  0  0  0  0
    4.6650    2.1450   -4.7990 C   0  0  0  0  0  0  0  0  0  0  0  0
    5.3150    3.3080   -4.4560 C   0  0  0  0  0  3  0  0  0  0  0  0
    4.5960    4.3020   -3.8320 C   0  0  0  0  0  3  0  0  0  0  0  0
    3.2590    4.1080   -3.5870 C   0  0  0  0  0  3  0  0  0  0  0  0
    2.6480    2.9910   -3.9010 C   0  0  0  0  0  3  0  0  0  0  0  0
    3.3610    1.9960   -4.5360 C   0  0  0  0  0  3  0  0  0  0  0  0
    5.0520   -1.6520   -5.5520 O   0  0  0  0  0  0  0  0  0  0  0  0
    5.0560   -2.6420   -5.5770 H   0  0  0  0  0  0  0  0  0  0  0  0
  1  2  2  0  0  0  0
  1  6  1  0  0  0  0
  2  3  1  0  0  0  0
  3  4  2  0  0  0  0
  4  9  1  0  0  0  0
  5  4  1  0  0  0  0
  5 17  1  0  0  0  0
  6  5  2  0  0  0  0
  7  8  1  0  0  0  0
  8  1  1  0  0  0  0
  9 10  2  0  0  0  0
  9 11  1  0  0  0  0
 11 16  2  0  0  0  0
 11 12  1  0  0  0  0
 12 13  2  0  0  0  0
 13 14  1  0  0  0  0
 15 14  2  0  0  0  0
 16 15  1  0  0  0  0
 18 17  1  0  0  0  0
M  END
>  <MODEL>
1

>  <REMARK>
 VINA RESULT:      -4.0      0.000      0.000
  Name = bgox31_2_ligand
  5 active torsions:
  status: ('A' for Active; 'I' for Inactive)
    1  A    between atoms: C_1  and  O_2
    2  A    between atoms: O_2  and  C_3
    3  A    between atoms: C_6  and  C_7
    4  A    between atoms: C_7  and  C_9
    5  A    between atoms: C_15  and  O_16
                            x       y       z     vdW  Elec       q    Type
                         _______ _______ _______ _____ _____    ______ ____

>  <TORSDO>
F 4

$$$$
bgox31_2_ligand
 OpenBabel10092621233D

 18 19  0  0  0  0  0  0  0  0999 V2000
    4.4510   -1.3490   -8.0900 C   0  0  0  0  0  0  0  0  0  0  0  0
    4.5730   -1.6040   -6.7220 C   0  0  0  0  0  3  0  0  0  0  0  0
    4.9340   -0.5980   -5.8610 C   0  0  0  0  0  3  0  0  0  0  0  0
    5.1610    0.6480   -6.3760 C   0  0  0  0  0  0  0  0  0  0  0  0
    4.9960    0.9230   -7.7230 C   0  0  0  0  0  0  0  0  0  0  0  0
    4.6330   -0.0830   -8.5660 C   0  0  0  0  0  3  0  0  0  0  0  0
    4.9060   -3.5350   -8.7860 C   0  0  0  0  0  1  0  0  0  0  0  0
    4.1400   -2.3630   -8.9080 O   0  0  0  0  0  0  0  0  0  0  0  0
    5.5870    1.7270   -5.4220 C   0  0  0  0  0  0  0  0  0  0  0  0
    6.7570    1.9740   -5.3400 O   0  0  0  0  0  0  0  0  0  0  0  0
    4.6390    2.5340   -4.7090 C   0  0  0  0  0  0  0  0  0  0  0  0
    5.1050    3.7110   -4.1700 C   0  0  0  0  0  3  0  0  0  0  0  0
    4.2390    4.4790   -3.4260 C   0  0  0  0  0  3  0  0  0  0  0  0
    2.9420    4.0570   -3.2600 C   0  0  0  0  0  3  0  0  0  0  0  0
    2.5090    2.9260   -3.7610 C   0  0  0  0  0  3  0  0  0  0  0  0
    3.3700    2.1570   -4.5160 C   0  0  0  0  0  3  0  0  0  0  0  0
    5.1710    2.1850   -8.1450 O   0  0  0  0  0  0  0  0  0  0  0  0
    4.3880    2.7770   -8.2720 H   0  0  0  0  0  0  0  0  0  0  0  0
  1  2  1  0  0  0  0
  2  3  2  0  0  0  0
  4  3  1  0  0  0  0
  4  9  1  0  0  0  0
  5  4  2  0  0  0  0
  6  1  2  0  0  0  0
  6  5  1  0  0  0  0
  8  7  1  0  0  0  0
  8  1  1  0  0  0  0
  9 10  2  0  0  0  0
  9 11  1  0  0  0  0
 11 16  2  0  0  0  0
 11 12  1  0  0  0  0
 12 13  2  0  0  0  0
 13 14  1  0  0  0  0
 15 14  2  0  0  0  0
 16 15  1  0  0  0  0
 17  5  1  0  0  0  0
 18 17  1  0  0  0  0
M  END
>  <MODEL>
2

>  <REMARK>
 VINA RESULT:      -3.9      1.300      2.018
  Name = bgox31_2_ligand
  5 active torsions:
  status: ('A' for Active; 'I' for Inactive)
    1  A    between atoms: C_1  and  O_2
    2  A    between atoms: O_2  and  C_3
    3  A    between atoms: C_6  and  C_7
    4  A    between atoms: C_7  and  C_9
    5  A    between atoms: C_15  and  O_16
                            x       y       z     vdW  Elec       q    Type
                         _______ _______ _______ _____ _____    ______ ____

>  <TORSDO>
F 4

$$$$
bgox31_2_ligand
 OpenBabel10092621233D

 18 19  0  0  0  0  0  0  0  0999 V2000
    3.8160    3.8720   -3.9260 C   0  0  0  0  0  0  0  0  0  0  0  0
    3.0610    2.7300   -4.2020 C   0  0  0  0  0  3  0  0  0  0  0  0
    3.6490    1.6380   -4.7880 C   0  0  0  0  0  3  0  0  0  0  0  0
    4.9830    1.6970   -5.0840 C   0  0  0  0  0  0  0  0  0  0  0  0
    5.7510    2.8060   -4.7700 C   0  0  0  0  0  0  0  0  0  0  0  0
    5.1560    3.8820   -4.1850 C   0  0  0  0  0  3  0  0  0  0  0  0
    1.8220    5.0580   -3.6310 C   0  0  0  0  0  1  0  0  0  0  0  0
    3.2020    4.9370   -3.3930 O   0  0  0  0  0  0  0  0  0  0  0  0
    5.6010    0.5040   -5.7550 C   0  0  0  0  0  0  0  0  0  0  0  0
    6.5490   -0.0080   -5.2290 O   0  0  0  0  0  0  0  0  0  0  0  0
    5.0250   -0.0980   -6.9230 C   0  0  0  0  0  0  0  0  0  0  0  0
    4.7050   -1.4330   -6.8400 C   0  0  0  0  0  3  0  0  0  0  0  0
    4.2100   -2.0590   -7.9620 C   0  0  0  0  0  3  0  0  0  0  0  0
    4.0380   -1.3320   -9.1140 C   0  0  0  0  0  3  0  0  0  0  0  0
    4.3610   -0.0630   -9.1910 C   0  0  0  0  0  3  0  0  0  0  0  0
    4.8480    0.5710   -8.0680 C   0  0  0  0  0  3  0  0  0  0  0  0
    7.0680    2.7670   -5.0290 O   0  0  0  0  0  0  0  0  0  0  0  0
    7.4980    1.9110   -5.2780 H   0  0  0  0  0  0  0  0  0  0  0  0
  1  8  1  0  0  0  0
  2  1  2  0  0  0  0
  3  2  1  0  0  0  0
  4  3  2  0  0  0  0
  4  5  1  0  0  0  0
  5  6  2  0  0  0  0
  6  1  1  0  0  0  0
  7  8  1  0  0  0  0
  9 10  2  0  0  0  0
  9  4  1  0  0  0  0
 11 12  1  0  0  0  0
 11  9  1  0  0  0  0
 13 12  2  0  0  0  0
 14 13  1  0  0  0  0
 15 14  2  0  0  0  0
 15 16  1  0  0  0  0
 16 11  2  0  0  0  0
 17  5  1  0  0  0  0
 18 17  1  0  0  0  0
M  END
>  <MODEL>
3

>  <REMARK>
 VINA RESULT:      -3.9      1.700      5.762
  Name = bgox31_2_ligand
  5 active torsions:
  status: ('A' for Active; 'I' for Inactive)
    1  A    between atoms: C_1  and  O_2
    2  A    between atoms: O_2  and  C_3
    3  A    between atoms: C_6  and  C_7
    4  A    between atoms: C_7  and  C_9
    5  A    between atoms: C_15  and  O_16
                            x       y       z     vdW  Elec       q    Type
                         _______ _______ _______ _____ _____    ______ ____

>  <TORSDO>
F 4

$$$$
bgox31_2_ligand
 OpenBabel10092621233D

 18 19  0  0  0  0  0  0  0  0999 V2000
   -2.4040   -4.5260    1.4290 C   0  0  0  0  0  0  0  0  0  0  0  0
   -1.4310   -5.2860    2.0830 C   0  0  0  0  0  3  0  0  0  0  0  0
   -0.8930   -6.3910    1.4750 C   0  0  0  0  0  3  0  0  0  0  0  0
   -1.3270   -6.7200    0.2200 C   0  0  0  0  0  0  0  0  0  0  0  0
   -2.2560   -5.9470   -0.4570 C   0  0  0  0  0  0  0  0  0  0  0  0
   -2.7790   -4.8490    0.1570 C   0  0  0  0  0  3  0  0  0  0  0  0
   -3.9770   -2.7950    1.4080 C   0  0  0  0  0  1  0  0  0  0  0  0
   -2.9400   -3.4790    2.0680 O   0  0  0  0  0  0  0  0  0  0  0  0
   -0.7500   -7.9520   -0.4150 C   0  0  0  0  0  0  0  0  0  0  0  0
   -1.5080   -8.8200   -0.7470 O   0  0  0  0  0  0  0  0  0  0  0  0
    0.6430   -8.0650   -0.7360 C   0  0  0  0  0  0  0  0  0  0  0  0
    0.9980   -7.8530   -2.0480 C   0  0  0  0  0  3  0  0  0  0  0  0
    2.3180   -8.0160   -2.4040 C   0  0  0  0  0  3  0  0  0  0  0  0
    3.2330   -8.3670   -1.4420 C   0  0  0  0  0  3  0  0  0  0  0  0
    2.8860   -8.5840   -0.1970 C   0  0  0  0  0  3  0  0  0  0  0  0
    1.5660   -8.4120    0.1680 C   0  0  0  0  0  3  0  0  0  0  0  0
   -2.5850   -6.2930   -1.7110 O   0  0  0  0  0  0  0  0  0  0  0  0
   -3.4670   -6.7020   -1.8960 H   0  0  0  0  0  0  0  0  0  0  0  0
  1  8  1  0  0  0  0
  1  2  1  0  0  0  0
  3  2  2  0  0  0  0
  4  3  1  0  0  0  0
  5  6  1  0  0  0  0
  5  4  2  0  0  0  0
  6  1  2  0  0  0  0
  7  8  1  0  0  0  0
  9  4  1  0  0  0  0
 10  9  2  0  0  0  0
 11  9  1  0  0  0  0
 11 16  1  0  0  0  0
 12 11  2  0  0  0  0
 13 12  1  0  0  0  0
 13 14  2  0  0  0  0
 14 15  1  0  0  0  0
 15 16  2  0  0  0  0
 17  5  1  0  0  0  0
 18 17  1  0  0  0  0
M  END
>  <MODEL>
4

>  <REMARK>
 VINA RESULT:      -3.6     10.679     12.424
  Name = bgox31_2_ligand
  5 active torsions:
  status: ('A' for Active; 'I' for Inactive)
    1  A    between atoms: C_1  and  O_2
    2  A    between atoms: O_2  and  C_3
    3  A    between atoms: C_6  and  C_7
    4  A    between atoms: C_7  and  C_9
    5  A    between atoms: C_15  and  O_16
                            x       y       z     vdW  Elec       q    Type
                         _______ _______ _______ _____ _____    ______ ____

>  <TORSDO>
F 4

$$$$
bgox31_2_ligand
 OpenBabel10092621233D

 18 19  0  0  0  0  0  0  0  0999 V2000
    6.7300   -1.3540   -5.3220 C   0  0  0  0  0  0  0  0  0  0  0  0
    5.4020   -1.5530   -5.7080 C   0  0  0  0  0  3  0  0  0  0  0  0
    4.6450   -0.4960   -6.1490 C   0  0  0  0  0  3  0  0  0  0  0  0
    5.2260    0.7410   -6.2060 C   0  0  0  0  0  0  0  0  0  0  0  0
    6.5550    0.9390   -5.8720 C   0  0  0  0  0  0  0  0  0  0  0  0
    7.2960   -0.1180   -5.4400 C   0  0  0  0  0  3  0  0  0  0  0  0
    6.8150   -3.6600   -4.9420 C   0  0  0  0  0  1  0  0  0  0  0  0
    7.4270   -2.3980   -4.8560 O   0  0  0  0  0  0  0  0  0  0  0  0
    4.3710    1.8890   -6.6600 C   0  0  0  0  0  0  0  0  0  0  0  0
    4.3810    2.1700   -7.8260 O   0  0  0  0  0  0  0  0  0  0  0  0
    3.4710    2.5690   -5.7730 C   0  0  0  0  0  0  0  0  0  0  0  0
    2.6750    3.5460   -6.3240 C   0  0  0  0  0  3  0  0  0  0  0  0
    1.8450    4.2620   -5.4910 C   0  0  0  0  0  3  0  0  0  0  0  0
    1.8280    3.9690   -4.1490 C   0  0  0  0  0  3  0  0  0  0  0  0
    2.6020    3.0480   -3.6280 C   0  0  0  0  0  3  0  0  0  0  0  0
    3.4280    2.3210   -4.4590 C   0  0  0  0  0  3  0  0  0  0  0  0
    7.0750    2.1690   -6.0160 O   0  0  0  0  0  0  0  0  0  0  0  0
    7.3960    2.6660   -5.2230 H   0  0  0  0  0  0  0  0  0  0  0  0
  1  8  1  0  0  0  0
  2  1  2  0  0  0  0
  3  2  1  0  0  0  0
  4  3  2  0  0  0  0
  4  5  1  0  0  0  0
  5  6  2  0  0  0  0
  6  1  1  0  0  0  0
  7  8  1  0  0  0  0
  9  4  1  0  0  0  0
  9 11  1  0  0  0  0
 10  9  2  0  0  0  0
 11 16  1  0  0  0  0
 12 11  2  0  0  0  0
 12 13  1  0  0  0  0
 13 14  2  0  0  0  0
 14 15  1  0  0  0  0
 16 15  2  0  0  0  0
 17  5  1  0  0  0  0
 17 18  1  0  0  0  0
M  END
>  <MODEL>
5

>  <REMARK>
 VINA RESULT:      -3.6      2.302      3.671
  Name = bgox31_2_ligand
  5 active torsions:
  status: ('A' for Active; 'I' for Inactive)
    1  A    between atoms: C_1  and  O_2
    2  A    between atoms: O_2  and  C_3
    3  A    between atoms: C_6  and  C_7
    4  A    between atoms: C_7  and  C_9
    5  A    between atoms: C_15  and  O_16
                            x       y       z     vdW  Elec       q    Type
                         _______ _______ _______ _____ _____    ______ ____

>  <TORSDO>
F 4

$$$$
bgox31_2_ligand
 OpenBabel10092621233D

 18 19  0  0  0  0  0  0  0  0999 V2000
   -2.1860   -5.5820    0.3970 C   0  0  0  0  0  0  0  0  0  0  0  0
   -2.4730   -6.2190   -0.8130 C   0  0  0  0  0  3  0  0  0  0  0  0
   -1.7370   -7.3060   -1.2130 C   0  0  0  0  0  3  0  0  0  0  0  0
   -0.7310   -7.7460   -0.3980 C   0  0  0  0  0  0  0  0  0  0  0  0
   -0.4700   -7.1520    0.8250 C   0  0  0  0  0  0  0  0  0  0  0  0
   -1.2100   -6.0770    1.2120 C   0  0  0  0  0  3  0  0  0  0  0  0
   -2.6350   -3.9400    2.0010 C   0  0  0  0  0  1  0  0  0  0  0  0
   -2.8950   -4.4980    0.7370 O   0  0  0  0  0  0  0  0  0  0  0  0
    0.0830   -8.9160   -0.8700 C   0  0  0  0  0  0  0  0  0  0  0  0
   -0.0670   -9.9670   -0.3110 O   0  0  0  0  0  0  0  0  0  0  0  0
    0.9320   -8.8410   -2.0240 C   0  0  0  0  0  0  0  0  0  0  0  0
    1.8800   -7.8440   -2.0350 C   0  0  0  0  0  3  0  0  0  0  0  0
    2.6690   -7.7020   -3.1530 C   0  0  0  0  0  3  0  0  0  0  0  0
    2.4960   -8.5640   -4.2090 C   0  0  0  0  0  3  0  0  0  0  0  0
    1.5800   -9.5010   -4.1990 C   0  0  0  0  0  3  0  0  0  0  0  0
    0.7930   -9.6540   -3.0770 C   0  0  0  0  0  3  0  0  0  0  0  0
    0.4890   -7.6800    1.6020 O   0  0  0  0  0  0  0  0  0  0  0  0
    1.4280   -7.3850    1.4970 H   0  0  0  0  0  0  0  0  0  0  0  0
  1  8  1  0  0  0  0
  1  6  1  0  0  0  0
  2  1  2  0  0  0  0
  3  2  1  0  0  0  0
  3  4  2  0  0  0  0
  4  5  1  0  0  0  0
  5  6  2  0  0  0  0
  5 17  1  0  0  0  0
  8  7  1  0  0  0  0
  9  4  1  0  0  0  0
  9 10  2  0  0  0  0
 11  9  1  0  0  0  0
 12 11  1  0  0  0  0
 13 12  2  0  0  0  0
 14 15  2  0  0  0  0
 14 13  1  0  0  0  0
 15 16  1  0  0  0  0
 16 11  2  0  0  0  0
 18 17  1  0  0  0  0
M  END
>  <MODEL>
6

>  <REMARK>
 VINA RESULT:      -3.6     10.448     12.346
  Name = bgox31_2_ligand
  5 active torsions:
  status: ('A' for Active; 'I' for Inactive)
    1  A    between atoms: C_1  and  O_2
    2  A    between atoms: O_2  and  C_3
    3  A    between atoms: C_6  and  C_7
    4  A    between atoms: C_7  and  C_9
    5  A    between atoms: C_15  and  O_16
                            x       y       z     vdW  Elec       q    Type
                         _______ _______ _______ _____ _____    ______ ____

>  <TORSDO>
F 4

$$$$
bgox31_2_ligand
 OpenBabel10092621233D

 18 19  0  0  0  0  0  0  0  0999 V2000
   -1.6090  -11.6790   -8.7040 C   0  0  0  0  0  0  0  0  0  0  0  0
   -1.9690  -10.8780   -7.6170 C   0  0  0  0  0  3  0  0  0  0  0  0
   -1.1750  -10.8330   -6.4990 C   0  0  0  0  0  3  0  0  0  0  0  0
   -0.0290  -11.5790   -6.4850 C   0  0  0  0  0  0  0  0  0  0  0  0
    0.3620  -12.3380   -7.5750 C   0  0  0  0  0  0  0  0  0  0  0  0
   -0.4330  -12.3710   -8.6800 C   0  0  0  0  0  3  0  0  0  0  0  0
   -2.9450  -12.9980  -10.0990 C   0  0  0  0  0  1  0  0  0  0  0  0
   -2.4280  -11.7350   -9.7620 O   0  0  0  0  0  0  0  0  0  0  0  0
    0.8100  -11.5400   -5.2390 C   0  0  0  0  0  0  0  0  0  0  0  0
    1.1370  -12.5850   -4.7500 O   0  0  0  0  0  0  0  0  0  0  0  0
    1.3180  -10.3130   -4.6990 C   0  0  0  0  0  0  0  0  0  0  0  0
    2.2470   -9.6380   -5.4550 C   0  0  0  0  0  3  0  0  0  0  0  0
    2.8040   -8.4890   -4.9390 C   0  0  0  0  0  3  0  0  0  0  0  0
    2.4050   -8.0500   -3.7000 C   0  0  0  0  0  3  0  0  0  0  0  0
    1.5310   -8.7070   -2.9760 C   0  0  0  0  0  3  0  0  0  0  0  0
    0.9630   -9.8530   -3.4930 C   0  0  0  0  0  3  0  0  0  0  0  0
    1.5330  -12.9910   -7.5140 O   0  0  0  0  0  0  0  0  0  0  0  0
    2.3840  -12.4880   -7.5700 H   0  0  0  0  0  0  0  0  0  0  0  0
  1  6  2  0  0  0  0
  1  2  1  0  0  0  0
  2  3  2  0  0  0  0
  3  4  1  0  0  0  0
  4  9  1  0  0  0  0
  5 17  1  0  0  0  0
  5  4  2  0  0  0  0
  6  5  1  0  0  0  0
  7  8  1  0  0  0  0
  8  1  1  0  0  0  0
  9 10  2  0  0  0  0
  9 11  1  0  0  0  0
 11 16  1  0  0  0  0
 12 13  1  0  0  0  0
 12 11  2  0  0  0  0
 13 14  2  0  0  0  0
 14 15  1  0  0  0  0
 16 15  2  0  0  0  0
 18 17  1  0  0  0  0
M  END
>  <MODEL>
7

>  <REMARK>
 VINA RESULT:      -3.5     10.856     12.825
  Name = bgox31_2_ligand
  5 active torsions:
  status: ('A' for Active; 'I' for Inactive)
    1  A    between atoms: C_1  and  O_2
    2  A    between atoms: O_2  and  C_3
    3  A    between atoms: C_6  and  C_7
    4  A    between atoms: C_7  and  C_9
    5  A    between atoms: C_15  and  O_16
                            x       y       z     vdW  Elec       q    Type
                         _______ _______ _______ _____ _____    ______ ____

>  <TORSDO>
F 4

$$$$
bgox31_2_ligand
 OpenBabel10092621233D

 18 19  0  0  0  0  0  0  0  0999 V2000
   -1.8300   -5.8040    0.3310 C   0  0  0  0  0  0  0  0  0  0  0  0
   -2.1620   -4.7270    1.1580 C   0  0  0  0  0  3  0  0  0  0  0  0
   -1.7600   -4.7130    2.4690 C   0  0  0  0  0  3  0  0  0  0  0  0
   -1.0280   -5.7690    2.9360 C   0  0  0  0  0  0  0  0  0  0  0  0
   -0.6530   -6.8190    2.1140 C   0  0  0  0  0  0  0  0  0  0  0  0
   -1.0540   -6.8180    0.8130 C   0  0  0  0  0  3  0  0  0  0  0  0
   -2.6670   -7.0470   -1.4640 C   0  0  0  0  0  1  0  0  0  0  0  0
   -2.2750   -5.8070   -0.9320 O   0  0  0  0  0  0  0  0  0  0  0  0
   -0.6260   -5.7510    4.3840 C   0  0  0  0  0  0  0  0  0  0  0  0
   -1.1480   -6.5400    5.1210 O   0  0  0  0  0  0  0  0  0  0  0  0
    0.4300   -4.9130    4.8720 C   0  0  0  0  0  0  0  0  0  0  0  0
    0.2250   -4.2970    6.0850 C   0  0  0  0  0  3  0  0  0  0  0  0
    1.1900   -3.4350    6.5540 C   0  0  0  0  0  3  0  0  0  0  0  0
    2.3260   -3.2320    5.8100 C   0  0  0  0  0  3  0  0  0  0  0  0
    2.5090   -3.8090    4.6470 C   0  0  0  0  0  3  0  0  0  0  0  0
    1.5490   -4.6810    4.1760 C   0  0  0  0  0  3  0  0  0  0  0  0
    0.1230   -7.7880    2.6250 O   0  0  0  0  0  0  0  0  0  0  0  0
    0.6690   -8.3530    2.0230 H   0  0  0  0  0  0  0  0  0  0  0  0
  1  6  2  0  0  0  0
  1  2  1  0  0  0  0
  2  3  2  0  0  0  0
  3  4  1  0  0  0  0
  4  9  1  0  0  0  0
  5 17  1  0  0  0  0
  5  4  2  0  0  0  0
  6  5  1  0  0  0  0
  7  8  1  0  0  0  0
  8  1  1  0  0  0  0
  9 11  1  0  0  0  0
  9 10  2  0  0  0  0
 11 12  1  0  0  0  0
 12 13  2  0  0  0  0
 14 13  1  0  0  0  0
 15 14  2  0  0  0  0
 16 15  1  0  0  0  0
 16 11  2  0  0  0  0
 18 17  1  0  0  0  0
M  END
>  <MODEL>
8

>  <REMARK>
 VINA RESULT:      -3.5     11.564     12.607
  Name = bgox31_2_ligand
  5 active torsions:
  status: ('A' for Active; 'I' for Inactive)
    1  A    between atoms: C_1  and  O_2
    2  A    between atoms: O_2  and  C_3
    3  A    between atoms: C_6  and  C_7
    4  A    between atoms: C_7  and  C_9
    5  A    between atoms: C_15  and  O_16
                            x       y       z     vdW  Elec       q    Type
                         _______ _______ _______ _____ _____    ______ ____

>  <TORSDO>
F 4

$$$$
bgox31_2_ligand
 OpenBabel10092621233D

 18 19  0  0  0  0  0  0  0  0999 V2000
    7.5710    1.5550    3.6170 C   0  0  0  0  0  0  0  0  0  0  0  0
    7.0240    1.6440    2.3340 C   0  0  0  0  0  3  0  0  0  0  0  0
    7.2800    0.6670    1.4050 C   0  0  0  0  0  3  0  0  0  0  0  0
    8.0720   -0.3870    1.7700 C   0  0  0  0  0  0  0  0  0  0  0  0
    8.5790   -0.5090    3.0530 C   0  0  0  0  0  0  0  0  0  0  0  0
    8.3140    0.4650    3.9670 C   0  0  0  0  0  3  0  0  0  0  0  0
    8.4160    3.3980    4.7840 C   0  0  0  0  0  1  0  0  0  0  0  0
    7.3370    2.5470    4.4860 O   0  0  0  0  0  0  0  0  0  0  0  0
    8.3670   -1.4280    0.7290 C   0  0  0  0  0  0  0  0  0  0  0  0
    9.4580   -1.4300    0.2310 O   0  0  0  0  0  0  0  0  0  0  0  0
    7.4370   -2.4710    0.4070 C   0  0  0  0  0  0  0  0  0  0  0  0
    7.7080   -3.2220   -0.7140 C   0  0  0  0  0  3  0  0  0  0  0  0
    6.8040   -4.1890   -1.0890 C   0  0  0  0  0  3  0  0  0  0  0  0
    5.6760   -4.3840   -0.3280 C   0  0  0  0  0  3  0  0  0  0  0  0
    5.4160   -3.6540    0.7290 C   0  0  0  0  0  3  0  0  0  0  0  0
    6.3230   -2.6890    1.1150 C   0  0  0  0  0  3  0  0  0  0  0  0
    9.2920   -1.6040    3.3580 O   0  0  0  0  0  0  0  0  0  0  0  0
    8.8930   -2.5020    3.2430 H   0  0  0  0  0  0  0  0  0  0  0  0
  1  6  1  0  0  0  0
  1  8  1  0  0  0  0
  2  1  2  0  0  0  0
  3  4  2  0  0  0  0
  3  2  1  0  0  0  0
  4  5  1  0  0  0  0
  5 17  1  0  0  0  0
  5  6  2  0  0  0  0
  8  7  1  0  0  0  0
  9  4  1  0  0  0  0
 10  9  2  0  0  0  0
 11  9  1  0  0  0  0
 11 16  1  0  0  0  0
 12 11  2  0  0  0  0
 13 12  1  0  0  0  0
 13 14  2  0  0  0  0
 14 15  1  0  0  0  0
 15 16  2  0  0  0  0
 18 17  1  0  0  0  0
M  END
>  <MODEL>
9

>  <REMARK>
 VINA RESULT:      -3.5      8.075     10.565
  Name = bgox31_2_ligand
  5 active torsions:
  status: ('A' for Active; 'I' for Inactive)
    1  A    between atoms: C_1  and  O_2
    2  A    between atoms: O_2  and  C_3
    3  A    between atoms: C_6  and  C_7
    4  A    between atoms: C_7  and  C_9
    5  A    between atoms: C_15  and  O_16
                            x       y       z     vdW  Elec       q    Type
                         _______ _______ _______ _____ _____    ______ ____

>  <TORSDO>
F 4

$$$$
