ox1_esm1_f8_ligand
 OpenBabel10092621183D

 18 19  0  0  0  0  0  0  0  0999 V2000
   -2.9630    6.1100    2.6830 C   0  0  0  0  0  0  0  0  0  0  0  0
   -3.6190    6.0820    3.9130 C   0  0  0  0  0  3  0  0  0  0  0  0
   -2.9190    5.7750    5.0720 C   0  0  0  0  0  3  0  0  0  0  0  0
   -1.5620    5.5040    5.0300 C   0  0  0  0  0  0  0  0  0  0  0  0
   -0.8910    5.5240    3.7890 C   0  0  0  0  0  0  0  0  0  0  0  0
   -1.6070    5.8280    2.6330 C   0  0  0  0  0  3  0  0  0  0  0  0
   -4.8510    7.2610    1.6660 C   0  0  0  0  0  1  0  0  0  0  0  0
   -3.6920    6.4260    1.5740 O   0  0  0  0  0  0  0  0  0  0  0  0
   -0.8110    5.1890    6.2880 C   0  0  0  0  0  0  0  0  0  0  0  0
    0.1620    5.8730    6.5950 O   0  0  0  0  0  0  0  0  0  0  0  0
   -1.2150    4.0430    7.1560 C   0  0  0  0  0  0  0  0  0  0  0  0
   -1.4730    2.8310    6.6280 C   0  0  0  0  0  3  0  0  0  0  0  0
   -1.8170    1.7170    7.3720 C   0  0  0  0  0  3  0  0  0  0  0  0
   -1.9440    1.8470    8.7340 C   0  0  0  0  0  3  0  0  0  0  0  0
   -1.7010    3.0830    9.3170 C   0  0  0  0  0  3  0  0  0  0  0  0
   -1.3430    4.1710    8.5210 C   0  0  0  0  0  3  0  0  0  0  0  0
    0.4430    5.2390    3.7440 O   0  0  0  0  0  0  0  0  0  0  0  0
    0.8390    4.6200    4.4060 H   0  0  0  0  0  0  0  0  0  0  0  0
  1  2  1  0  0  0  0
  2  3  2  0  0  0  0
  4  3  1  0  0  0  0
  4  9  1  0  0  0  0
  5  4  2  0  0  0  0
  6  1  2  0  0  0  0
  6  5  1  0  0  0  0
  8  7  1  0  0  0  0
  8  1  1  0  0  0  0
  9 10  2  0  0  0  0
  9 11  1  0  0  0  0
 11 16  1  0  0  0  0
 12 11  2  0  0  0  0
 12 13  1  0  0  0  0
 13 14  2  0  0  0  0
 14 15  1  0  0  0  0
 16 15  2  0  0  0  0
 17  5  1  0  0  0  0
 17 18  1  0  0  0  0
M  END
>  <MODEL>
1

>  <REMARK>
 VINA RESULT:      -4.6      0.000      0.000
  Name = ox1_esm1_f8_ligand
  5 active torsions:
  status: ('A' for Active; 'I' for Inactive)
    1  A    between atoms: C_1  and  O_2
    2  A    between atoms: O_2  and  C_3
    3  A    between atoms: C_6  and  C_7
    4  A    between atoms: C_7  and  C_9
    5  A    between atoms: C_15  and  O_16
                            x       y       z     vdW  Elec       q    Type
                         _______ _______ _______ _____ _____    ______ ____

>  <TORSDO>
F 4

$$$$
ox1_esm1_f8_ligand
 OpenBabel10092621183D

 18 19  0  0  0  0  0  0  0  0999 V2000
    1.7090    5.2100    3.1460 C   0  0  0  0  0  0  0  0  0  0  0  0
    1.9610    4.9510    4.4930 C   0  0  0  0  0  3  0  0  0  0  0  0
    0.9220    4.9670    5.4130 C   0  0  0  0  0  3  0  0  0  0  0  0
   -0.3770    5.2280    5.0120 C   0  0  0  0  0  0  0  0  0  0  0  0
   -0.6400    5.4980    3.6530 C   0  0  0  0  0  0  0  0  0  0  0  0
    0.4130    5.4850    2.7400 C   0  0  0  0  0  3  0  0  0  0  0  0
    3.5750    6.3300    2.0550 C   0  0  0  0  0  1  0  0  0  0  0  0
    2.7620    5.1740    2.2780 O   0  0  0  0  0  0  0  0  0  0  0  0
   -1.4950    5.2280    6.0100 C   0  0  0  0  0  0  0  0  0  0  0  0
   -2.3260    6.1320    5.9840 O   0  0  0  0  0  0  0  0  0  0  0  0
   -1.5960    4.1590    7.0480 C   0  0  0  0  0  0  0  0  0  0  0  0
   -1.7620    2.8680    6.7010 C   0  0  0  0  0  3  0  0  0  0  0  0
   -1.8280    1.8230    7.6040 C   0  0  0  0  0  3  0  0  0  0  0  0
   -1.7610    2.1050    8.9460 C   0  0  0  0  0  3  0  0  0  0  0  0
   -1.6050    3.4250    9.3480 C   0  0  0  0  0  3  0  0  0  0  0  0
   -1.5290    4.4400    8.3950 C   0  0  0  0  0  3  0  0  0  0  0  0
   -1.9170    5.7740    3.2590 O   0  0  0  0  0  0  0  0  0  0  0  0
   -2.2260    6.7120    3.2030 H   0  0  0  0  0  0  0  0  0  0  0  0
  1  2  1  0  0  0  0
  2  3  2  0  0  0  0
  4  3  1  0  0  0  0
  4  9  1  0  0  0  0
  5  4  2  0  0  0  0
  6  1  2  0  0  0  0
  6  5  1  0  0  0  0
  7  8  1  0  0  0  0
  8  1  1  0  0  0  0
  9 11  1  0  0  0  0
 10  9  2  0  0  0  0
 11 16  1  0  0  0  0
 12 11  2  0  0  0  0
 12 13  1  0  0  0  0
 13 14  2  0  0  0  0
 14 15  1  0  0  0  0
 16 15  2  0  0  0  0
 17  5  1  0  0  0  0
 18 17  1  0  0  0  0
M  END
>  <MODEL>
2

>  <REMARK>
 VINA RESULT:      -4.6      2.022      3.486
  Name = ox1_esm1_f8_ligand
  5 active torsions:
  status: ('A' for Active; 'I' for Inactive)
    1  A    between atoms: C_1  and  O_2
    2  A    between atoms: O_2  and  C_3
    3  A    between atoms: C_6  and  C_7
    4  A    between atoms: C_7  and  C_9
    5  A    between atoms: C_15  and  O_16
                            x       y       z     vdW  Elec       q    Type
                         _______ _______ _______ _____ _____    ______ ____

>  <TORSDO>
F 4

$$$$
ox1_esm1_f8_ligand
 OpenBabel10092621183D

 18 19  0  0  0  0  0  0  0  0999 V2000
   -0.8040    2.7610    8.8000 C   0  0  0  0  0  0  0  0  0  0  0  0
   -1.1650    2.2470    7.5550 C   0  0  0  0  0  3  0  0  0  0  0  0
   -1.8420    3.0420    6.6410 C   0  0  0  0  0  3  0  0  0  0  0  0
   -2.1590    4.3550    6.9410 C   0  0  0  0  0  0  0  0  0  0  0  0
   -1.8030    4.8820    8.2000 C   0  0  0  0  0  0  0  0  0  0  0  0
   -1.1290    4.0710    9.1120 C   0  0  0  0  0  3  0  0  0  0  0  0
   -0.1220    0.5250    9.4770 C   0  0  0  0  0  1  0  0  0  0  0  0
   -0.1310    1.9440    9.6610 O   0  0  0  0  0  0  0  0  0  0  0  0
   -2.8770    5.2110    5.9410 C   0  0  0  0  0  0  0  0  0  0  0  0
   -3.9790    5.6730    6.2250 O   0  0  0  0  0  0  0  0  0  0  0  0
   -2.2810    5.4870    4.6000 C   0  0  0  0  0  0  0  0  0  0  0  0
   -3.0550    5.8430    3.5570 C   0  0  0  0  0  3  0  0  0  0  0  0
   -2.5710    6.1480    2.2980 C   0  0  0  0  0  3  0  0  0  0  0  0
   -1.2200    6.0500    2.0690 C   0  0  0  0  0  3  0  0  0  0  0  0
   -0.3870    5.6730    3.1140 C   0  0  0  0  0  3  0  0  0  0  0  0
   -0.9270    5.3910    4.3690 C   0  0  0  0  0  3  0  0  0  0  0  0
   -2.1320    6.1710    8.5050 O   0  0  0  0  0  0  0  0  0  0  0  0
   -1.4750    6.8970    8.3590 H   0  0  0  0  0  0  0  0  0  0  0  0
  1  6  1  0  0  0  0
  1  8  1  0  0  0  0
  2  1  2  0  0  0  0
  3  4  2  0  0  0  0
  3  2  1  0  0  0  0
  4  5  1  0  0  0  0
  5 17  1  0  0  0  0
  5  6  2  0  0  0  0
  7  8  1  0  0  0  0
  9 10  2  0  0  0  0
  9  4  1  0  0  0  0
 11  9  1  0  0  0  0
 12 11  2  0  0  0  0
 13 12  1  0  0  0  0
 14 13  2  0  0  0  0
 14 15  1  0  0  0  0
 15 16  2  0  0  0  0
 16 11  1  0  0  0  0
 18 17  1  0  0  0  0
M  END
>  <MODEL>
3

>  <REMARK>
 VINA RESULT:      -4.5      2.110      6.201
  Name = ox1_esm1_f8_ligand
  5 active torsions:
  status: ('A' for Active; 'I' for Inactive)
    1  A    between atoms: C_1  and  O_2
    2  A    between atoms: O_2  and  C_3
    3  A    between atoms: C_6  and  C_7
    4  A    between atoms: C_7  and  C_9
    5  A    between atoms: C_15  and  O_16
                            x       y       z     vdW  Elec       q    Type
                         _______ _______ _______ _____ _____    ______ ____

>  <TORSDO>
F 4

$$$$
ox1_esm1_f8_ligand
 OpenBabel10092621183D

 18 19  0  0  0  0  0  0  0  0999 V2000
   -2.7350    6.1000    2.7350 C   0  0  0  0  0  0  0  0  0  0  0  0
   -1.3650    5.9580    2.9470 C   0  0  0  0  0  3  0  0  0  0  0  0
   -0.8820    5.6480    4.2120 C   0  0  0  0  0  3  0  0  0  0  0  0
   -1.7480    5.4640    5.2760 C   0  0  0  0  0  0  0  0  0  0  0  0
   -3.1360    5.6130    5.0720 C   0  0  0  0  0  0  0  0  0  0  0  0
   -3.6070    5.9300    3.7990 C   0  0  0  0  0  3  0  0  0  0  0  0
   -4.4320    7.0160    1.2490 C   0  0  0  0  0  1  0  0  0  0  0  0
   -3.1610    6.3960    1.4730 O   0  0  0  0  0  0  0  0  0  0  0  0
   -1.2190    5.1140    6.6340 C   0  0  0  0  0  0  0  0  0  0  0  0
   -1.1000    5.9970    7.4800 O   0  0  0  0  0  0  0  0  0  0  0  0
   -0.8140    3.7150    6.9620 C   0  0  0  0  0  0  0  0  0  0  0  0
    0.4710    3.4100    7.2290 C   0  0  0  0  0  3  0  0  0  0  0  0
    0.9140    2.1460    7.5750 C   0  0  0  0  0  3  0  0  0  0  0  0
    0.0050    1.1170    7.6150 C   0  0  0  0  0  3  0  0  0  0  0  0
   -1.3270    1.3850    7.3320 C   0  0  0  0  0  3  0  0  0  0  0  0
   -1.7230    2.6820    7.0040 C   0  0  0  0  0  3  0  0  0  0  0  0
   -3.9890    5.4510    6.1240 O   0  0  0  0  0  0  0  0  0  0  0  0
   -3.6480    5.1200    6.9920 H   0  0  0  0  0  0  0  0  0  0  0  0
  1  2  2  0  0  0  0
  1  6  1  0  0  0  0
  2  3  1  0  0  0  0
  3  4  2  0  0  0  0
  4  9  1  0  0  0  0
  5  4  1  0  0  0  0
  5 17  1  0  0  0  0
  6  5  2  0  0  0  0
  7  8  1  0  0  0  0
  8  1  1  0  0  0  0
  9 11  1  0  0  0  0
  9 10  2  0  0  0  0
 11 16  2  0  0  0  0
 11 12  1  0  0  0  0
 12 13  2  0  0  0  0
 13 14  1  0  0  0  0
 15 14  2  0  0  0  0
 16 15  1  0  0  0  0
 17 18  1  0  0  0  0
M  END
>  <MODEL>
4

>  <REMARK>
 VINA RESULT:      -4.4      1.467      2.190
  Name = ox1_esm1_f8_ligand
  5 active torsions:
  status: ('A' for Active; 'I' for Inactive)
    1  A    between atoms: C_1  and  O_2
    2  A    between atoms: O_2  and  C_3
    3  A    between atoms: C_6  and  C_7
    4  A    between atoms: C_7  and  C_9
    5  A    between atoms: C_15  and  O_16
                            x       y       z     vdW  Elec       q    Type
                         _______ _______ _______ _____ _____    ______ ____

>  <TORSDO>
F 4

$$$$
ox1_esm1_f8_ligand
 OpenBabel10092621183D

 18 19  0  0  0  0  0  0  0  0999 V2000
   -1.4480    4.7530    9.5830 C   0  0  0  0  0  0  0  0  0  0  0  0
   -1.5010    6.0140    8.9900 C   0  0  0  0  0  3  0  0  0  0  0  0
   -1.7260    6.1340    7.6250 C   0  0  0  0  0  3  0  0  0  0  0  0
   -1.9120    5.0130    6.8350 C   0  0  0  0  0  0  0  0  0  0  0  0
   -1.8530    3.7330    7.4260 C   0  0  0  0  0  0  0  0  0  0  0  0
   -1.6210    3.6260    8.7960 C   0  0  0  0  0  3  0  0  0  0  0  0
   -0.6540    3.5230   11.5280 C   0  0  0  0  0  1  0  0  0  0  0  0
   -1.2340    4.6870   10.9290 O   0  0  0  0  0  0  0  0  0  0  0  0
   -2.1690    5.1530    5.3650 C   0  0  0  0  0  0  0  0  0  0  0  0
   -3.3250    5.1170    4.9510 O   0  0  0  0  0  0  0  0  0  0  0  0
   -1.0410    5.3100    4.4000 C   0  0  0  0  0  0  0  0  0  0  0  0
   -1.2650    5.6890    3.1270 C   0  0  0  0  0  3  0  0  0  0  0  0
   -0.2680    5.8900    2.1890 C   0  0  0  0  0  3  0  0  0  0  0  0
    1.0350    5.6540    2.5510 C   0  0  0  0  0  3  0  0  0  0  0  0
    1.3090    5.2480    3.8500 C   0  0  0  0  0  3  0  0  0  0  0  0
    0.2670    5.0750    4.7610 C   0  0  0  0  0  3  0  0  0  0  0  0
   -2.0170    2.6260    6.6450 O   0  0  0  0  0  0  0  0  0  0  0  0
   -2.7420    1.9820    6.8460 H   0  0  0  0  0  0  0  0  0  0  0  0
  1  8  1  0  0  0  0
  2  1  1  0  0  0  0
  3  2  2  0  0  0  0
  4  5  2  0  0  0  0
  4  3  1  0  0  0  0
  5  6  1  0  0  0  0
  6  1  2  0  0  0  0
  8  7  1  0  0  0  0
  9  4  1  0  0  0  0
 10  9  2  0  0  0  0
 11 16  1  0  0  0  0
 11  9  1  0  0  0  0
 12 11  2  0  0  0  0
 13 14  2  0  0  0  0
 13 12  1  0  0  0  0
 14 15  1  0  0  0  0
 15 16  2  0  0  0  0
 17 18  1  0  0  0  0
 17  5  1  0  0  0  0
M  END
>  <MODEL>
5

>  <REMARK>
 VINA RESULT:      -4.3      2.230      6.029
  Name = ox1_esm1_f8_ligand
  5 active torsions:
  status: ('A' for Active; 'I' for Inactive)
    1  A    between atoms: C_1  and  O_2
    2  A    between atoms: O_2  and  C_3
    3  A    between atoms: C_6  and  C_7
    4  A    between atoms: C_7  and  C_9
    5  A    between atoms: C_15  and  O_16
                            x       y       z     vdW  Elec       q    Type
                         _______ _______ _______ _____ _____    ______ ____

>  <TORSDO>
F 4

$$$$
ox1_esm1_f8_ligand
 OpenBabel10092621183D

 18 19  0  0  0  0  0  0  0  0999 V2000
   -1.9650    2.0150    9.4400 C   0  0  0  0  0  0  0  0  0  0  0  0
   -2.0540    1.5400    8.1320 C   0  0  0  0  0  3  0  0  0  0  0  0
   -1.6470    2.3360    7.0700 C   0  0  0  0  0  3  0  0  0  0  0  0
   -1.1360    3.6040    7.2890 C   0  0  0  0  0  0  0  0  0  0  0  0
   -1.0480    4.0950    8.6090 C   0  0  0  0  0  0  0  0  0  0  0  0
   -1.4660    3.2880    9.6650 C   0  0  0  0  0  3  0  0  0  0  0  0
   -3.7050    0.6820   10.4970 C   0  0  0  0  0  1  0  0  0  0  0  0
   -2.3690    1.1920   10.4500 O   0  0  0  0  0  0  0  0  0  0  0  0
   -0.6840    4.4500    6.1380 C   0  0  0  0  0  0  0  0  0  0  0  0
    0.5170    4.6450    5.9690 O   0  0  0  0  0  0  0  0  0  0  0  0
   -1.6730    5.0770    5.2120 C   0  0  0  0  0  0  0  0  0  0  0  0
   -1.3130    5.4670    3.9730 C   0  0  0  0  0  3  0  0  0  0  0  0
   -2.1820    6.0210    3.0500 C   0  0  0  0  0  3  0  0  0  0  0  0
   -3.4890    6.2290    3.4170 C   0  0  0  0  0  3  0  0  0  0  0  0
   -3.8980    5.8550    4.6890 C   0  0  0  0  0  3  0  0  0  0  0  0
   -2.9850    5.2860    5.5760 C   0  0  0  0  0  3  0  0  0  0  0  0
   -0.5620    5.3520    8.8250 O   0  0  0  0  0  0  0  0  0  0  0  0
   -1.1570    6.1370    8.7210 H   0  0  0  0  0  0  0  0  0  0  0  0
  1  6  1  0  0  0  0
  1  8  1  0  0  0  0
  2  1  2  0  0  0  0
  3  4  2  0  0  0  0
  3  2  1  0  0  0  0
  4  5  1  0  0  0  0
  5 17  1  0  0  0  0
  5  6  2  0  0  0  0
  8  7  1  0  0  0  0
  9  4  1  0  0  0  0
 10  9  2  0  0  0  0
 11 16  1  0  0  0  0
 11  9  1  0  0  0  0
 12 11  2  0  0  0  0
 13 14  2  0  0  0  0
 13 12  1  0  0  0  0
 14 15  1  0  0  0  0
 15 16  2  0  0  0  0
 18 17  1  0  0  0  0
M  END
>  <MODEL>
6

>  <REMARK>
 VINA RESULT:      -4.3      1.935      6.062
  Name = ox1_esm1_f8_ligand
  5 active torsions:
  status: ('A' for Active; 'I' for Inactive)
    1  A    between atoms: C_1  and  O_2
    2  A    between atoms: O_2  and  C_3
    3  A    between atoms: C_6  and  C_7
    4  A    between atoms: C_7  and  C_9
    5  A    between atoms: C_15  and  O_16
                            x       y       z     vdW  Elec       q    Type
                         _______ _______ _______ _____ _____    ______ ____

>  <TORSDO>
F 4

$$$$
ox1_esm1_f8_ligand
 OpenBabel10092621183D

 18 19  0  0  0  0  0  0  0  0999 V2000
   -1.8710    2.4350   10.0920 C   0  0  0  0  0  0  0  0  0  0  0  0
   -1.4650    3.7680   10.0350 C   0  0  0  0  0  3  0  0  0  0  0  0
   -1.2490    4.3800    8.8090 C   0  0  0  0  0  3  0  0  0  0  0  0
   -1.4410    3.6870    7.6260 C   0  0  0  0  0  0  0  0  0  0  0  0
   -1.8460    2.3370    7.6740 C   0  0  0  0  0  0  0  0  0  0  0  0
   -2.0540    1.7320    8.9120 C   0  0  0  0  0  3  0  0  0  0  0  0
   -3.2980    1.1900   11.6210 C   0  0  0  0  0  1  0  0  0  0  0  0
   -2.0810    1.8800   11.3210 O   0  0  0  0  0  0  0  0  0  0  0  0
   -1.2200    4.3610    6.3060 C   0  0  0  0  0  0  0  0  0  0  0  0
   -0.1110    4.3070    5.7800 O   0  0  0  0  0  0  0  0  0  0  0  0
   -2.3210    5.1160    5.6360 C   0  0  0  0  0  0  0  0  0  0  0  0
   -3.4320    5.4680    6.3110 C   0  0  0  0  0  3  0  0  0  0  0  0
   -4.4740    6.1960    5.7670 C   0  0  0  0  0  3  0  0  0  0  0  0
   -4.4050    6.5590    4.4440 C   0  0  0  0  0  3  0  0  0  0  0  0
   -3.2840    6.2040    3.7070 C   0  0  0  0  0  3  0  0  0  0  0  0
   -2.2540    5.4810    4.3090 C   0  0  0  0  0  3  0  0  0  0  0  0
   -2.0180    1.6460    6.5090 O   0  0  0  0  0  0  0  0  0  0  0  0
   -1.3690    1.7540    5.7700 H   0  0  0  0  0  0  0  0  0  0  0  0
  1  8  1  0  0  0  0
  2  1  1  0  0  0  0
  3  2  2  0  0  0  0
  4  5  2  0  0  0  0
  4  3  1  0  0  0  0
  5  6  1  0  0  0  0
  6  1  2  0  0  0  0
  8  7  1  0  0  0  0
  9  4  1  0  0  0  0
 10  9  2  0  0  0  0
 11  9  1  0  0  0  0
 11 12  1  0  0  0  0
 13 12  2  0  0  0  0
 14 13  1  0  0  0  0
 15 16  1  0  0  0  0
 15 14  2  0  0  0  0
 16 11  2  0  0  0  0
 17  5  1  0  0  0  0
 18 17  1  0  0  0  0
M  END
>  <MODEL>
7

>  <REMARK>
 VINA RESULT:      -4.1      2.327      6.285
  Name = ox1_esm1_f8_ligand
  5 active torsions:
  status: ('A' for Active; 'I' for Inactive)
    1  A    between atoms: C_1  and  O_2
    2  A    between atoms: O_2  and  C_3
    3  A    between atoms: C_6  and  C_7
    4  A    between atoms: C_7  and  C_9
    5  A    between atoms: C_15  and  O_16
                            x       y       z     vdW  Elec       q    Type
                         _______ _______ _______ _____ _____    ______ ____

>  <TORSDO>
F 4

$$$$
ox1_esm1_f8_ligand
 OpenBabel10092621183D

 18 19  0  0  0  0  0  0  0  0999 V2000
    0.8480    3.6660    8.4570 C   0  0  0  0  0  0  0  0  0  0  0  0
    0.7620    5.0210    8.1420 C   0  0  0  0  0  3  0  0  0  0  0  0
   -0.2520    5.4820    7.3140 C   0  0  0  0  0  3  0  0  0  0  0  0
   -1.1970    4.6120    6.7980 C   0  0  0  0  0  0  0  0  0  0  0  0
   -1.1140    3.2380    7.1060 C   0  0  0  0  0  0  0  0  0  0  0  0
   -0.0870    2.7870    7.9340 C   0  0  0  0  0  3  0  0  0  0  0  0
    3.2280    3.4140    8.9020 C   0  0  0  0  0  1  0  0  0  0  0  0
    1.8570    3.2620    9.2830 O   0  0  0  0  0  0  0  0  0  0  0  0
   -2.2980    5.1210    5.9170 C   0  0  0  0  0  0  0  0  0  0  0  0
   -3.4310    5.2400    6.3770 O   0  0  0  0  0  0  0  0  0  0  0  0
   -2.0400    5.4620    4.4860 C   0  0  0  0  0  0  0  0  0  0  0  0
   -3.0460    5.8290    3.6680 C   0  0  0  0  0  3  0  0  0  0  0  0
   -2.8770    6.1920    2.3440 C   0  0  0  0  0  3  0  0  0  0  0  0
   -1.6160    6.1430    1.8020 C   0  0  0  0  0  3  0  0  0  0  0  0
   -0.5530    5.7550    2.6070 C   0  0  0  0  0  3  0  0  0  0  0  0
   -0.7760    5.4140    3.9400 C   0  0  0  0  0  3  0  0  0  0  0  0
   -2.0330    2.3770    6.5830 O   0  0  0  0  0  0  0  0  0  0  0  0
   -2.7900    2.0630    7.1390 H   0  0  0  0  0  0  0  0  0  0  0  0
  1  8  1  0  0  0  0
  2  1  1  0  0  0  0
  3  2  2  0  0  0  0
  4  5  2  0  0  0  0
  4  3  1  0  0  0  0
  5  6  1  0  0  0  0
  6  1  2  0  0  0  0
  7  8  1  0  0  0  0
  9 10  2  0  0  0  0
  9  4  1  0  0  0  0
 11  9  1  0  0  0  0
 12 11  2  0  0  0  0
 13 12  1  0  0  0  0
 14 13  2  0  0  0  0
 14 15  1  0  0  0  0
 15 16  2  0  0  0  0
 16 11  1  0  0  0  0
 17  5  1  0  0  0  0
 17 18  1  0  0  0  0
M  END
>  <MODEL>
8

>  <REMARK>
 VINA RESULT:      -4.1      2.297      6.205
  Name = ox1_esm1_f8_ligand
  5 active torsions:
  status: ('A' for Active; 'I' for Inactive)
    1  A    between atoms: C_1  and  O_2
    2  A    between atoms: O_2  and  C_3
    3  A    between atoms: C_6  and  C_7
    4  A    between atoms: C_7  and  C_9
    5  A    between atoms: C_15  and  O_16
                            x       y       z     vdW  Elec       q    Type
                         _______ _______ _______ _____ _____    ______ ____

>  <TORSDO>
F 4

$$$$
ox1_esm1_f8_ligand
 OpenBabel10092621183D

 18 19  0  0  0  0  0  0  0  0999 V2000
   -0.0610    1.6420    7.9030 C   0  0  0  0  0  0  0  0  0  0  0  0
    1.0760    2.3870    7.5930 C   0  0  0  0  0  3  0  0  0  0  0  0
    0.9560    3.6130    6.9540 C   0  0  0  0  0  3  0  0  0  0  0  0
   -0.2890    4.1210    6.6240 C   0  0  0  0  0  0  0  0  0  0  0  0
   -1.4450    3.3720    6.9270 C   0  0  0  0  0  0  0  0  0  0  0  0
   -1.3090    2.1390    7.5640 C   0  0  0  0  0  3  0  0  0  0  0  0
    1.0810   -0.5000    8.0860 C   0  0  0  0  0  1  0  0  0  0  0  0
    0.1080    0.4470    8.5400 O   0  0  0  0  0  0  0  0  0  0  0  0
   -0.4110    5.4530    5.9480 C   0  0  0  0  0  0  0  0  0  0  0  0
   -0.3280    6.4790    6.6190 O   0  0  0  0  0  0  0  0  0  0  0  0
   -0.6550    5.5480    4.4780 C   0  0  0  0  0  0  0  0  0  0  0  0
   -1.8890    5.7920    3.9940 C   0  0  0  0  0  3  0  0  0  0  0  0
   -2.1830    5.9280    2.6500 C   0  0  0  0  0  3  0  0  0  0  0  0
   -1.1710    5.7690    1.7340 C   0  0  0  0  0  3  0  0  0  0  0  0
    0.1130    5.5030    2.1890 C   0  0  0  0  0  3  0  0  0  0  0  0
    0.3570    5.3900    3.5580 C   0  0  0  0  0  3  0  0  0  0  0  0
   -2.6710    3.8630    6.5860 O   0  0  0  0  0  0  0  0  0  0  0  0
   -3.4550    3.6840    7.1640 H   0  0  0  0  0  0  0  0  0  0  0  0
  1  8  1  0  0  0  0
  2  1  1  0  0  0  0
  3  2  2  0  0  0  0
  4  5  2  0  0  0  0
  4  3  1  0  0  0  0
  5  6  1  0  0  0  0
  6  1  2  0  0  0  0
  7  8  1  0  0  0  0
  9 10  2  0  0  0  0
  9  4  1  0  0  0  0
 11  9  1  0  0  0  0
 12 11  1  0  0  0  0
 13 12  2  0  0  0  0
 14 15  2  0  0  0  0
 14 13  1  0  0  0  0
 15 16  1  0  0  0  0
 16 11  2  0  0  0  0
 17  5  1  0  0  0  0
 17 18  1  0  0  0  0
M  END
>  <MODEL>
9

>  <REMARK>
 VINA RESULT:      -4.1      2.248      6.244
  Name = ox1_esm1_f8_ligand
  5 active torsions:
  status: ('A' for Active; 'I' for Inactive)
    1  A    between atoms: C_1  and  O_2
    2  A    between atoms: O_2  and  C_3
    3  A    between atoms: C_6  and  C_7
    4  A    between atoms: C_7  and  C_9
    5  A    between atoms: C_15  and  O_16
                            x       y       z     vdW  Elec       q    Type
                         _______ _______ _______ _____ _____    ______ ____

>  <TORSDO>
F 4

$$$$
