bgox31_4_ligand
     RDKit          3D

 29 30  0  0  0  0  0  0  0  0999 V2000
   -4.4430   -8.9880    6.4500 C   0  0  1  0  0  0  0  0  0  0  0  0
   -5.1360   -7.7130    6.3850 O   0  0  0  0  0  0  0  0  0  0  0  0
   -5.0850   -7.0770    5.1700 C   0  0  0  0  0  0  0  0  0  0  0  0
   -5.5800   -5.8050    5.0730 C   0  0  0  0  0  0  0  0  0  0  0  0
   -5.5820   -5.1030    3.8140 C   0  0  0  0  0  0  0  0  0  0  0  0
   -5.0020   -5.7610    2.7200 C   0  0  0  0  0  0  0  0  0  0  0  0
   -4.9780   -5.0200    1.4470 C   0  0  0  0  0  0  0  0  0  0  0  0
   -6.1100   -4.7560    0.9220 O   0  0  0  0  0  0  0  0  0  0  0  0
   -3.7900   -4.3710    0.8870 C   0  0  0  0  0  0  0  0  0  0  0  0
   -3.9940   -3.5030   -0.1940 C   0  0  0  0  0  0  0  0  0  0  0  0
   -2.8720   -2.9230   -0.8260 C   0  0  0  0  0  0  0  0  0  0  0  0
   -1.6200   -3.2880   -0.4440 C   0  0  0  0  0  0  0  0  0  0  0  0
   -1.3940   -4.1920    0.5800 C   0  0  0  0  0  0  0  0  0  0  0  0
   -2.4890   -4.7750    1.2490 C   0  0  0  0  0  0  0  0  0  0  0  0
   -4.5250   -7.0600    2.8410 C   0  0  0  0  0  0  0  0  0  0  0  0
   -3.9790   -7.6690    1.6980 O   0  0  0  0  0  0  0  0  0  0  0  0
   -4.5440   -7.7460    4.0700 C   0  0  0  0  0  0  0  0  0  0  0  0
   -4.2902   -9.2691    7.5025 H   0  0  0  0  0  0  0  0  0  0  0  0
   -5.0461   -9.7591    5.9484 H   0  0  0  0  0  0  0  0  0  0  0  0
   -3.4679   -8.9013    5.9484 H   0  0  0  0  0  0  0  0  0  0  0  0
   -5.9825   -5.3106    5.9694 H   0  0  0  0  0  0  0  0  0  0  0  0
   -6.0182   -4.0979    3.7160 H   0  0  0  0  0  0  0  0  0  0  0  0
   -5.0118   -3.2770   -0.5448 H   0  0  0  0  0  0  0  0  0  0  0  0
   -3.0110   -2.1789   -1.6241 H   0  0  0  0  0  0  0  0  0  0  0  0
   -0.7565   -2.8502   -0.9663 H   0  0  0  0  0  0  0  0  0  0  0  0
   -0.3657   -4.4537    0.8698 H   0  0  0  0  0  0  0  0  0  0  0  0
   -2.3320   -5.5279    2.0355 H   0  0  0  0  0  0  0  0  0  0  0  0
   -3.6299   -8.5940    1.7489 H   0  0  0  0  0  0  0  0  0  0  0  0
   -4.1484   -8.7684    4.1604 H   0  0  0  0  0  0  0  0  0  0  0  0
  2  1  1  0
  3  2  1  0
  4  3  1  0
  5  4  2  0
  6  5  1  0
  7  6  1  0
  8  7  2  0
  9  7  1  0
 10  9  2  0
 11 10  1  0
 12 11  2  0
 13 12  1  0
 14 13  2  0
 14  9  1  0
 15  6  2  0
 16 15  1  0
 17 15  1  0
 17  3  2  0
  1 18  1  1
  1 19  1  0
  1 20  1  0
  4 21  1  0
  5 22  1  0
 10 23  1  0
 11 24  1  0
 12 25  1  0
 13 26  1  0
 14 27  1  0
 16 28  1  0
 17 29  1  0
M  END
