bg33_2_ligand
 OpenBabel10092621133D

 20 20  0  0  1  0  0  0  0  0999 V2000
   -2.7820    1.2200   -7.9330 C   0  0  0  0  0  0  0  0  0  0  0  0
   -1.6520    1.6010   -8.1380 O   0  0  0  0  0  0  0  0  0  0  0  0
   -3.9320    2.1220   -8.2710 C   0  0  0  0  0  3  0  0  0  0  0  0
   -5.2020    1.6860   -8.5510 C   0  0  0  0  0  3  0  0  0  0  0  0
   -6.3230    2.6790   -8.7360 C   0  0  0  0  0  0  0  0  0  0  0  0
   -7.0930    2.6580   -9.8820 C   0  0  0  0  0  3  0  0  0  0  0  0
   -8.0990    3.6120  -10.0150 C   0  0  0  0  0  3  0  0  0  0  0  0
   -8.3590    4.5780   -9.0510 C   0  0  0  0  0  0  0  0  0  0  0  0
   -7.5590    4.5840   -7.9350 C   0  0  0  0  0  3  0  0  0  0  0  0
   -6.5410    3.6360   -7.7640 C   0  0  0  0  0  3  0  0  0  0  0  0
   -9.3510    5.5350   -9.2340 O   0  0  0  0  0  0  0  0  0  0  0  0
   -9.0570    6.5460  -10.2070 C   0  0  0  0  0  1  0  0  0  0  0  0
   -2.9790   -0.0500   -7.3170 O   0  0  0  0  0  0  0  0  0  0  0  0
   -2.3710   -0.2820   -6.0060 C   0  0  2  0  0  3  0  0  0  0  0  0
   -1.3770   -1.4260   -5.9840 C   0  0  0  0  0  2  0  0  0  0  0  0
    0.0950   -0.8730   -6.1250 C   0  0  0  0  0  1  0  0  0  0  0  0
   -3.4240   -0.5520   -4.9700 C   0  0  0  0  0  2  0  0  0  0  0  0
   -4.8040   -0.7570   -5.6180 C   0  0  0  0  0  2  0  0  0  0  0  0
   -7.0680    0.2890   -5.7010 C   0  0  0  0  0  1  0  0  0  0  0  0
   -5.9260   -0.1890   -4.7880 C   0  0  0  0  0  2  0  0  0  0  0  0
  1 13  1  0  0  0  0
  2  1  2  0  0  0  0
  3  1  1  0  0  0  0
  4  3  2  0  0  0  0
  5  4  1  0  0  0  0
  5 10  1  0  0  0  0
  6  5  2  0  0  0  0
  7  6  1  0  0  0  0
  7  8  2  0  0  0  0
  8  9  1  0  0  0  0
  9 10  2  0  0  0  0
 11  8  1  0  0  0  0
 12 11  1  0  0  0  0
 13 14  1  0  0  0  0
 14 15  1  6  0  0  0
 14 17  1  0  0  0  0
 16 15  1  0  0  0  0
 18 17  1  0  0  0  0
 18 20  1  0  0  0  0
 19 20  1  0  0  0  0
M  END
>  <MODEL>
1

>  <REMARK>
 VINA RESULT:      -3.4      0.000      0.000
  Name = bg33_2_ligand
  12 active torsions:
  status: ('A' for Active; 'I' for Inactive)
    1  A    between atoms: C_1  and  C_2
    2  A    between atoms: C_2  and  C_3
    3  A    between atoms: C_3  and  C_4
    4  A    between atoms: C_4  and  C_5
    5  A    between atoms: C_5  and  C_6
    6  A    between atoms: C_5  and  O_8
    7  A    between atoms: C_6  and  C_7
    8  A    between atoms: O_8  and  C_9
    9  A    between atoms: C_9  and  C_11
   10  A    between atoms: C_12  and  C_13
   11  A    between atoms: C_16  and  O_17
   12  A    between atoms: O_17  and  C_18
                            x       y       z     vdW  Elec       q    Type
                         _______ _______ _______ _____ _____    ______ ____

>  <TORSDO>
F 9

$$$$
bg33_2_ligand
 OpenBabel10092621133D

 20 20  0  0  1  0  0  0  0  0999 V2000
   -2.4330    1.3160   -7.8760 C   0  0  0  0  0  0  0  0  0  0  0  0
   -1.4820    1.1670   -8.6100 O   0  0  0  0  0  0  0  0  0  0  0  0
   -3.6370    2.0560   -8.3790 C   0  0  0  0  0  3  0  0  0  0  0  0
   -4.9320    1.6350   -8.2070 C   0  0  0  0  0  3  0  0  0  0  0  0
   -6.0800    2.5220   -8.6220 C   0  0  0  0  0  0  0  0  0  0  0  0
   -6.7160    2.3220   -9.8320 C   0  0  0  0  0  3  0  0  0  0  0  0
   -7.7540    3.1830  -10.1780 C   0  0  0  0  0  3  0  0  0  0  0  0
   -8.1740    4.2280   -9.3660 C   0  0  0  0  0  0  0  0  0  0  0  0
   -7.5050    4.4120   -8.1810 C   0  0  0  0  0  3  0  0  0  0  0  0
   -6.4600    3.5610   -7.7960 C   0  0  0  0  0  3  0  0  0  0  0  0
   -9.1940    5.0880   -9.7600 O   0  0  0  0  0  0  0  0  0  0  0  0
   -8.7610    6.3230  -10.3460 C   0  0  0  0  0  1  0  0  0  0  0  0
   -2.3490    0.8390   -6.5360 O   0  0  0  0  0  0  0  0  0  0  0  0
   -2.9870   -0.4390   -6.2160 C   0  0  2  0  0  3  0  0  0  0  0  0
   -3.5530   -0.5090   -4.8120 C   0  0  0  0  0  2  0  0  0  0  0  0
   -4.7540   -1.5320   -4.7570 C   0  0  0  0  0  1  0  0  0  0  0  0
   -2.0220   -1.5760   -6.3940 C   0  0  0  0  0  2  0  0  0  0  0  0
   -2.3920   -2.4340   -7.6160 C   0  0  0  0  0  2  0  0  0  0  0  0
   -3.5150   -1.7010   -9.7210 C   0  0  0  0  0  1  0  0  0  0  0  0
   -3.7080   -2.0320   -8.2310 C   0  0  0  0  0  2  0  0  0  0  0  0
  1 13  1  0  0  0  0
  2  1  2  0  0  0  0
  3  4  2  0  0  0  0
  3  1  1  0  0  0  0
  5  4  1  0  0  0  0
  5 10  1  0  0  0  0
  6  5  2  0  0  0  0
  7  6  1  0  0  0  0
  7  8  2  0  0  0  0
  8  9  1  0  0  0  0
  9 10  2  0  0  0  0
 11  8  1  0  0  0  0
 12 11  1  0  0  0  0
 13 14  1  0  0  0  0
 14 17  1  1  0  0  0
 14 15  1  0  0  0  0
 15 16  1  0  0  0  0
 18 17  1  0  0  0  0
 19 20  1  0  0  0  0
 20 18  1  0  0  0  0
M  END
>  <MODEL>
2

>  <REMARK>
 VINA RESULT:      -3.2      1.293      2.325
  Name = bg33_2_ligand
  12 active torsions:
  status: ('A' for Active; 'I' for Inactive)
    1  A    between atoms: C_1  and  C_2
    2  A    between atoms: C_2  and  C_3
    3  A    between atoms: C_3  and  C_4
    4  A    between atoms: C_4  and  C_5
    5  A    between atoms: C_5  and  C_6
    6  A    between atoms: C_5  and  O_8
    7  A    between atoms: C_6  and  C_7
    8  A    between atoms: O_8  and  C_9
    9  A    between atoms: C_9  and  C_11
   10  A    between atoms: C_12  and  C_13
   11  A    between atoms: C_16  and  O_17
   12  A    between atoms: O_17  and  C_18
                            x       y       z     vdW  Elec       q    Type
                         _______ _______ _______ _____ _____    ______ ____

>  <TORSDO>
F 9

$$$$
bg33_2_ligand
 OpenBabel10092621133D

 20 20  0  0  1  0  0  0  0  0999 V2000
   -2.4580    1.3670   -7.9620 C   0  0  0  0  0  0  0  0  0  0  0  0
   -1.6590    1.2270   -8.8600 O   0  0  0  0  0  0  0  0  0  0  0  0
   -3.7000    2.1740   -8.2060 C   0  0  0  0  0  3  0  0  0  0  0  0
   -4.8500    1.6760   -8.7630 C   0  0  0  0  0  3  0  0  0  0  0  0
   -6.0910    2.5300   -8.8330 C   0  0  0  0  0  0  0  0  0  0  0  0
   -6.9520    2.4260   -9.9080 C   0  0  0  0  0  3  0  0  0  0  0  0
   -8.0710    3.2540   -9.9360 C   0  0  0  0  0  3  0  0  0  0  0  0
   -8.3570    4.1750   -8.9370 C   0  0  0  0  0  0  0  0  0  0  0  0
   -7.4680    4.2680   -7.8940 C   0  0  0  0  0  3  0  0  0  0  0  0
   -6.3350    3.4470   -7.8290 C   0  0  0  0  0  3  0  0  0  0  0  0
   -9.4680    5.0080   -9.0160 O   0  0  0  0  0  0  0  0  0  0  0  0
  -10.0550    5.3680   -7.7580 C   0  0  0  0  0  1  0  0  0  0  0  0
   -2.1590    0.8150   -6.6830 O   0  0  0  0  0  0  0  0  0  0  0  0
   -2.7250   -0.4920   -6.3460 C   0  0  2  0  0  3  0  0  0  0  0  0
   -3.6890   -0.4610   -5.1780 C   0  0  0  0  0  2  0  0  0  0  0  0
   -5.1790   -0.4310   -5.6980 C   0  0  0  0  0  1  0  0  0  0  0  0
   -1.6380   -1.4810   -6.0360 C   0  0  0  0  0  2  0  0  0  0  0  0
   -0.2530   -0.8120   -6.0610 C   0  0  0  0  0  2  0  0  0  0  0  0
    1.3590   -0.1720   -7.8550 C   0  0  0  0  0  1  0  0  0  0  0  0
    0.6250   -1.3360   -7.1670 C   0  0  0  0  0  2  0  0  0  0  0  0
  1 13  1  0  0  0  0
  2  1  2  0  0  0  0
  3  1  1  0  0  0  0
  4  3  2  0  0  0  0
  5  4  1  0  0  0  0
  5 10  1  0  0  0  0
  6  5  2  0  0  0  0
  7  6  1  0  0  0  0
  7  8  2  0  0  0  0
  8  9  1  0  0  0  0
  9 10  2  0  0  0  0
 11  8  1  0  0  0  0
 11 12  1  0  0  0  0
 13 14  1  0  0  0  0
 14 17  1  1  0  0  0
 14 15  1  0  0  0  0
 16 15  1  0  0  0  0
 18 17  1  0  0  0  0
 19 20  1  0  0  0  0
 20 18  1  0  0  0  0
M  END
>  <MODEL>
3

>  <REMARK>
 VINA RESULT:      -3.2      0.948      3.158
  Name = bg33_2_ligand
  12 active torsions:
  status: ('A' for Active; 'I' for Inactive)
    1  A    between atoms: C_1  and  C_2
    2  A    between atoms: C_2  and  C_3
    3  A    between atoms: C_3  and  C_4
    4  A    between atoms: C_4  and  C_5
    5  A    between atoms: C_5  and  C_6
    6  A    between atoms: C_5  and  O_8
    7  A    between atoms: C_6  and  C_7
    8  A    between atoms: O_8  and  C_9
    9  A    between atoms: C_9  and  C_11
   10  A    between atoms: C_12  and  C_13
   11  A    between atoms: C_16  and  O_17
   12  A    between atoms: O_17  and  C_18
                            x       y       z     vdW  Elec       q    Type
                         _______ _______ _______ _____ _____    ______ ____

>  <TORSDO>
F 9

$$$$
bg33_2_ligand
 OpenBabel10092621133D

 20 20  0  0  1  0  0  0  0  0999 V2000
   -6.1370    2.0710   -9.9520 C   0  0  0  0  0  0  0  0  0  0  0  0
   -6.3390    2.1940  -11.1390 O   0  0  0  0  0  0  0  0  0  0  0  0
   -4.8330    1.4930   -9.4870 C   0  0  0  0  0  3  0  0  0  0  0  0
   -4.0920    1.9930   -8.4460 C   0  0  0  0  0  3  0  0  0  0  0  0
   -2.8680    1.2550   -7.9620 C   0  0  0  0  0  0  0  0  0  0  0  0
   -1.7020    1.2770   -8.7000 C   0  0  0  0  0  3  0  0  0  0  0  0
   -0.6080    0.5600   -8.2220 C   0  0  0  0  0  3  0  0  0  0  0  0
   -0.6400   -0.1730   -7.0420 C   0  0  0  0  0  0  0  0  0  0  0  0
   -1.8240   -0.1910   -6.3450 C   0  0  0  0  0  3  0  0  0  0  0  0
   -2.9430    0.5240   -6.7930 C   0  0  0  0  0  3  0  0  0  0  0  0
    0.4620   -0.9040   -6.6130 O   0  0  0  0  0  0  0  0  0  0  0  0
    1.7130   -0.5340   -7.2080 C   0  0  0  0  0  1  0  0  0  0  0  0
   -7.1740    2.4190   -9.0390 O   0  0  0  0  0  0  0  0  0  0  0  0
   -7.3590    3.8340   -8.7120 C   0  0  2  0  0  3  0  0  0  0  0  0
   -7.2970    4.1350   -7.2280 C   0  0  0  0  0  2  0  0  0  0  0  0
   -8.6650    4.7490   -6.7360 C   0  0  0  0  0  1  0  0  0  0  0  0
   -8.6730    4.3360   -9.2400 C   0  0  0  0  0  2  0  0  0  0  0  0
   -8.5250    4.8840  -10.6700 C   0  0  0  0  0  2  0  0  0  0  0  0
   -9.5910    6.9140   -9.6840 C   0  0  0  0  0  1  0  0  0  0  0  0
   -8.5860    6.3880  -10.7240 C   0  0  0  0  0  2  0  0  0  0  0  0
  1  3  1  0  0  0  0
  1 13  1  0  0  0  0
  2  1  2  0  0  0  0
  3  4  2  0  0  0  0
  4  5  1  0  0  0  0
  5 10  1  0  0  0  0
  6  7  1  0  0  0  0
  6  5  2  0  0  0  0
  7  8  2  0  0  0  0
  8 11  1  0  0  0  0
  8  9  1  0  0  0  0
 10  9  2  0  0  0  0
 12 11  1  0  0  0  0
 13 14  1  0  0  0  0
 14 17  1  1  0  0  0
 14 15  1  0  0  0  0
 15 16  1  0  0  0  0
 18 17  1  0  0  0  0
 20 18  1  0  0  0  0
 20 19  1  0  0  0  0
M  END
>  <MODEL>
4

>  <REMARK>
 VINA RESULT:      -3.2      2.177      7.744
  Name = bg33_2_ligand
  12 active torsions:
  status: ('A' for Active; 'I' for Inactive)
    1  A    between atoms: C_1  and  C_2
    2  A    between atoms: C_2  and  C_3
    3  A    between atoms: C_3  and  C_4
    4  A    between atoms: C_4  and  C_5
    5  A    between atoms: C_5  and  C_6
    6  A    between atoms: C_5  and  O_8
    7  A    between atoms: C_6  and  C_7
    8  A    between atoms: O_8  and  C_9
    9  A    between atoms: C_9  and  C_11
   10  A    between atoms: C_12  and  C_13
   11  A    between atoms: C_16  and  O_17
   12  A    between atoms: O_17  and  C_18
                            x       y       z     vdW  Elec       q    Type
                         _______ _______ _______ _____ _____    ______ ____

>  <TORSDO>
F 9

$$$$
bg33_2_ligand
 OpenBabel10092621133D

 20 20  0  0  1  0  0  0  0  0999 V2000
   -8.0580    1.1450   -6.5740 C   0  0  0  0  0  0  0  0  0  0  0  0
   -9.2670    1.1970   -6.6070 O   0  0  0  0  0  0  0  0  0  0  0  0
   -7.3710    0.9100   -5.2610 C   0  0  0  0  0  3  0  0  0  0  0  0
   -6.4200   -0.0550   -5.0470 C   0  0  0  0  0  3  0  0  0  0  0  0
   -5.6840   -0.1180   -3.7320 C   0  0  0  0  0  0  0  0  0  0  0  0
   -5.9350    0.8150   -2.7450 C   0  0  0  0  0  3  0  0  0  0  0  0
   -5.2120    0.7270   -1.5590 C   0  0  0  0  0  3  0  0  0  0  0  0
   -4.2530   -0.2500   -1.3270 C   0  0  0  0  0  0  0  0  0  0  0  0
   -4.0110   -1.1470   -2.3380 C   0  0  0  0  0  3  0  0  0  0  0  0
   -4.7250   -1.0940   -3.5430 C   0  0  0  0  0  3  0  0  0  0  0  0
   -3.5260   -0.2850   -0.1410 O   0  0  0  0  0  0  0  0  0  0  0  0
   -4.3070   -0.2100    1.0590 C   0  0  0  0  0  1  0  0  0  0  0  0
   -7.3270    1.3760   -7.7750 O   0  0  0  0  0  0  0  0  0  0  0  0
   -6.3130    2.4310   -7.7740 C   0  0  2  0  0  3  0  0  0  0  0  0
   -6.8800    3.8270   -7.9370 C   0  0  0  0  0  2  0  0  0  0  0  0
   -7.9120    3.8620   -9.1310 C   0  0  0  0  0  1  0  0  0  0  0  0
   -5.3030    2.2020   -8.8620 C   0  0  0  0  0  2  0  0  0  0  0  0
   -3.9250    1.8480   -8.2770 C   0  0  0  0  0  2  0  0  0  0  0  0
   -2.7860    0.3930   -6.6000 C   0  0  0  0  0  1  0  0  0  0  0  0
   -3.8890    0.4690   -7.6700 C   0  0  0  0  0  2  0  0  0  0  0  0
  1  3  1  0  0  0  0
  2  1  2  0  0  0  0
  3  4  2  0  0  0  0
  4  5  1  0  0  0  0
  5 10  2  0  0  0  0
  5  6  1  0  0  0  0
  6  7  2  0  0  0  0
  7  8  1  0  0  0  0
  8 11  1  0  0  0  0
  9  8  2  0  0  0  0
 10  9  1  0  0  0  0
 11 12  1  0  0  0  0
 13 14  1  0  0  0  0
 13  1  1  0  0  0  0
 14 17  1  6  0  0  0
 15 14  1  0  0  0  0
 16 15  1  0  0  0  0
 17 18  1  0  0  0  0
 18 20  1  0  0  0  0
 20 19  1  0  0  0  0
M  END
>  <MODEL>
5

>  <REMARK>
 VINA RESULT:      -3.2      3.064      7.581
  Name = bg33_2_ligand
  12 active torsions:
  status: ('A' for Active; 'I' for Inactive)
    1  A    between atoms: C_1  and  C_2
    2  A    between atoms: C_2  and  C_3
    3  A    between atoms: C_3  and  C_4
    4  A    between atoms: C_4  and  C_5
    5  A    between atoms: C_5  and  C_6
    6  A    between atoms: C_5  and  O_8
    7  A    between atoms: C_6  and  C_7
    8  A    between atoms: O_8  and  C_9
    9  A    between atoms: C_9  and  C_11
   10  A    between atoms: C_12  and  C_13
   11  A    between atoms: C_16  and  O_17
   12  A    between atoms: O_17  and  C_18
                            x       y       z     vdW  Elec       q    Type
                         _______ _______ _______ _____ _____    ______ ____

>  <TORSDO>
F 9

$$$$
bg33_2_ligand
 OpenBabel10092621133D

 20 20  0  0  1  0  0  0  0  0999 V2000
    5.3410    3.8530    1.2910 C   0  0  0  0  0  0  0  0  0  0  0  0
    5.7630    2.7290    1.4420 O   0  0  0  0  0  0  0  0  0  0  0  0
    4.8700    4.2820   -0.0670 C   0  0  0  0  0  3  0  0  0  0  0  0
    5.7020    4.5970   -1.1110 C   0  0  0  0  0  3  0  0  0  0  0  0
    5.1310    4.8770   -2.4790 C   0  0  0  0  0  0  0  0  0  0  0  0
    4.8150    3.8370   -3.3310 C   0  0  0  0  0  3  0  0  0  0  0  0
    4.3130    4.1500   -4.5920 C   0  0  0  0  0  3  0  0  0  0  0  0
    4.1190    5.4540   -5.0280 C   0  0  0  0  0  0  0  0  0  0  0  0
    4.4650    6.4640   -4.1630 C   0  0  0  0  0  3  0  0  0  0  0  0
    4.9670    6.1870   -2.8850 C   0  0  0  0  0  3  0  0  0  0  0  0
    3.6460    5.7280   -6.3070 O   0  0  0  0  0  0  0  0  0  0  0  0
    3.1710    7.0660   -6.5110 C   0  0  0  0  0  1  0  0  0  0  0  0
    5.3670    4.7520    2.3970 O   0  0  0  0  0  0  0  0  0  0  0  0
    4.6010    5.9950    2.2950 C   0  0  2  0  0  3  0  0  0  0  0  0
    5.4520    7.2220    2.0410 C   0  0  0  0  0  2  0  0  0  0  0  0
    5.0210    7.9180    0.6920 C   0  0  0  0  0  1  0  0  0  0  0  0
    3.7940    6.2280    3.5400 C   0  0  0  0  0  2  0  0  0  0  0  0
    2.4300    6.8580    3.2110 C   0  0  0  0  0  2  0  0  0  0  0  0
    0.4170    5.5140    2.6040 C   0  0  0  0  0  1  0  0  0  0  0  0
    1.7200    6.1480    2.0870 C   0  0  0  0  0  2  0  0  0  0  0  0
  1  2  2  0  0  0  0
  1 13  1  0  0  0  0
  3  1  1  0  0  0  0
  4  3  2  0  0  0  0
  5  4  1  0  0  0  0
  6  5  2  0  0  0  0
  7  6  1  0  0  0  0
  8  7  2  0  0  0  0
  8  9  1  0  0  0  0
  9 10  2  0  0  0  0
 10  5  1  0  0  0  0
 11  8  1  0  0  0  0
 12 11  1  0  0  0  0
 14 15  1  1  0  0  0
 14 13  1  0  0  0  0
 14 17  1  0  0  0  0
 16 15  1  0  0  0  0
 18 17  1  0  0  0  0
 20 19  1  0  0  0  0
 20 18  1  0  0  0  0
M  END
>  <MODEL>
6

>  <REMARK>
 VINA RESULT:      -3.1     10.330     12.955
  Name = bg33_2_ligand
  12 active torsions:
  status: ('A' for Active; 'I' for Inactive)
    1  A    between atoms: C_1  and  C_2
    2  A    between atoms: C_2  and  C_3
    3  A    between atoms: C_3  and  C_4
    4  A    between atoms: C_4  and  C_5
    5  A    between atoms: C_5  and  C_6
    6  A    between atoms: C_5  and  O_8
    7  A    between atoms: C_6  and  C_7
    8  A    between atoms: O_8  and  C_9
    9  A    between atoms: C_9  and  C_11
   10  A    between atoms: C_12  and  C_13
   11  A    between atoms: C_16  and  O_17
   12  A    between atoms: O_17  and  C_18
                            x       y       z     vdW  Elec       q    Type
                         _______ _______ _______ _____ _____    ______ ____

>  <TORSDO>
F 9

$$$$
bg33_2_ligand
 OpenBabel10092621133D

 20 20  0  0  1  0  0  0  0  0999 V2000
   -0.5900   -5.1340    0.3260 C   0  0  0  0  0  0  0  0  0  0  0  0
    0.3890   -5.2790   -0.3710 O   0  0  0  0  0  0  0  0  0  0  0  0
   -1.3810   -3.8640    0.2230 C   0  0  0  0  0  3  0  0  0  0  0  0
   -2.5810   -3.7500   -0.4310 C   0  0  0  0  0  3  0  0  0  0  0  0
   -3.3680   -2.4650   -0.3540 C   0  0  0  0  0  0  0  0  0  0  0  0
   -4.1780   -2.0780   -1.4040 C   0  0  0  0  0  3  0  0  0  0  0  0
   -4.8650   -0.8720   -1.2930 C   0  0  0  0  0  3  0  0  0  0  0  0
   -4.7710   -0.0450   -0.1810 C   0  0  0  0  0  0  0  0  0  0  0  0
   -3.9390   -0.4500    0.8340 C   0  0  0  0  0  3  0  0  0  0  0  0
   -3.2370   -1.6610    0.7610 C   0  0  0  0  0  3  0  0  0  0  0  0
   -5.4470    1.1690   -0.1200 O   0  0  0  0  0  0  0  0  0  0  0  0
   -5.4880    1.9100   -1.3470 C   0  0  0  0  0  1  0  0  0  0  0  0
   -0.9190   -6.1510    1.2690 O   0  0  0  0  0  0  0  0  0  0  0  0
   -0.1040   -6.2600    2.4790 C   0  0  2  0  0  3  0  0  0  0  0  0
    0.4270   -7.6550    2.7390 C   0  0  0  0  0  2  0  0  0  0  0  0
    1.8510   -7.8290    2.0790 C   0  0  0  0  0  1  0  0  0  0  0  0
   -0.8810   -5.8180    3.6870 C   0  0  0  0  0  2  0  0  0  0  0  0
   -2.3920   -6.0210    3.4830 C   0  0  0  0  0  2  0  0  0  0  0  0
   -4.3430   -4.6870    2.6830 C   0  0  0  0  0  1  0  0  0  0  0  0
   -3.1810   -4.7540    3.6890 C   0  0  0  0  0  2  0  0  0  0  0  0
  1 13  1  0  0  0  0
  2  1  2  0  0  0  0
  3  1  1  0  0  0  0
  4  5  1  0  0  0  0
  4  3  2  0  0  0  0
  5 10  1  0  0  0  0
  6  7  1  0  0  0  0
  6  5  2  0  0  0  0
  7  8  2  0  0  0  0
  8 11  1  0  0  0  0
  8  9  1  0  0  0  0
 10  9  2  0  0  0  0
 12 11  1  0  0  0  0
 13 14  1  0  0  0  0
 14 15  1  1  0  0  0
 14 17  1  0  0  0  0
 16 15  1  0  0  0  0
 18 17  1  0  0  0  0
 18 20  1  0  0  0  0
 19 20  1  0  0  0  0
M  END
>  <MODEL>
7

>  <REMARK>
 VINA RESULT:      -3.1      7.946     10.536
  Name = bg33_2_ligand
  12 active torsions:
  status: ('A' for Active; 'I' for Inactive)
    1  A    between atoms: C_1  and  C_2
    2  A    between atoms: C_2  and  C_3
    3  A    between atoms: C_3  and  C_4
    4  A    between atoms: C_4  and  C_5
    5  A    between atoms: C_5  and  C_6
    6  A    between atoms: C_5  and  O_8
    7  A    between atoms: C_6  and  C_7
    8  A    between atoms: O_8  and  C_9
    9  A    between atoms: C_9  and  C_11
   10  A    between atoms: C_12  and  C_13
   11  A    between atoms: C_16  and  O_17
   12  A    between atoms: O_17  and  C_18
                            x       y       z     vdW  Elec       q    Type
                         _______ _______ _______ _____ _____    ______ ____

>  <TORSDO>
F 9

$$$$
bg33_2_ligand
 OpenBabel10092621133D

 20 20  0  0  1  0  0  0  0  0999 V2000
   -8.1740    4.5600   -7.6120 C   0  0  0  0  0  0  0  0  0  0  0  0
   -8.4980    5.0210   -6.5410 O   0  0  0  0  0  0  0  0  0  0  0  0
   -6.9350    3.7200   -7.7040 C   0  0  0  0  0  3  0  0  0  0  0  0
   -6.9230    2.3490   -7.6580 C   0  0  0  0  0  3  0  0  0  0  0  0
   -5.6420    1.5910   -7.9030 C   0  0  0  0  0  0  0  0  0  0  0  0
   -5.5030    0.2900   -7.4620 C   0  0  0  0  0  3  0  0  0  0  0  0
   -4.2920   -0.3570   -7.6930 C   0  0  0  0  0  3  0  0  0  0  0  0
   -3.2230    0.2460   -8.3420 C   0  0  0  0  0  0  0  0  0  0  0  0
   -3.3870    1.5490   -8.7470 C   0  0  0  0  0  3  0  0  0  0  0  0
   -4.5940    2.2290   -8.5380 C   0  0  0  0  0  3  0  0  0  0  0  0
   -2.0160   -0.4200   -8.5250 O   0  0  0  0  0  0  0  0  0  0  0  0
   -0.9320    0.0370   -7.7050 C   0  0  0  0  0  1  0  0  0  0  0  0
   -8.9480    4.8860   -8.7640 O   0  0  0  0  0  0  0  0  0  0  0  0
   -8.2580    4.9990  -10.0500 C   0  0  2  0  0  3  0  0  0  0  0  0
   -8.4900    6.3190  -10.7570 C   0  0  0  0  0  2  0  0  0  0  0  0
   -9.2750    6.0850  -12.1070 C   0  0  0  0  0  1  0  0  0  0  0  0
   -8.6680    3.8890  -10.9750 C   0  0  0  0  0  2  0  0  0  0  0  0
   -7.4820    2.9620  -11.2920 C   0  0  0  0  0  2  0  0  0  0  0  0
   -6.5700    0.6390  -11.3350 C   0  0  0  0  0  1  0  0  0  0  0  0
   -7.8290    1.5030  -11.1420 C   0  0  0  0  0  2  0  0  0  0  0  0
  1  2  2  0  0  0  0
  3  4  2  0  0  0  0
  3  1  1  0  0  0  0
  5  4  1  0  0  0  0
  5  6  1  0  0  0  0
  7  6  2  0  0  0  0
  8  7  1  0  0  0  0
  9 10  1  0  0  0  0
  9  8  2  0  0  0  0
 10  5  2  0  0  0  0
 11  8  1  0  0  0  0
 11 12  1  0  0  0  0
 13  1  1  0  0  0  0
 14 17  1  6  0  0  0
 14 13  1  0  0  0  0
 15 14  1  0  0  0  0
 16 15  1  0  0  0  0
 18 20  1  0  0  0  0
 18 17  1  0  0  0  0
 19 20  1  0  0  0  0
M  END
>  <MODEL>
8

>  <REMARK>
 VINA RESULT:      -3.1      1.710      7.467
  Name = bg33_2_ligand
  12 active torsions:
  status: ('A' for Active; 'I' for Inactive)
    1  A    between atoms: C_1  and  C_2
    2  A    between atoms: C_2  and  C_3
    3  A    between atoms: C_3  and  C_4
    4  A    between atoms: C_4  and  C_5
    5  A    between atoms: C_5  and  C_6
    6  A    between atoms: C_5  and  O_8
    7  A    between atoms: C_6  and  C_7
    8  A    between atoms: O_8  and  C_9
    9  A    between atoms: C_9  and  C_11
   10  A    between atoms: C_12  and  C_13
   11  A    between atoms: C_16  and  O_17
   12  A    between atoms: O_17  and  C_18
                            x       y       z     vdW  Elec       q    Type
                         _______ _______ _______ _____ _____    ______ ____

>  <TORSDO>
F 9

$$$$
bg33_2_ligand
 OpenBabel10092621133D

 20 20  0  0  1  0  0  0  0  0999 V2000
   -0.2520   -5.4700    1.2920 C   0  0  0  0  0  0  0  0  0  0  0  0
   -0.4120   -5.5910    2.4860 O   0  0  0  0  0  0  0  0  0  0  0  0
   -1.0040   -4.4000    0.5580 C   0  0  0  0  0  3  0  0  0  0  0  0
   -2.3700   -4.2750    0.5560 C   0  0  0  0  0  3  0  0  0  0  0  0
   -3.0230   -3.0810   -0.0940 C   0  0  0  0  0  0  0  0  0  0  0  0
   -3.3860   -3.1210   -1.4260 C   0  0  0  0  0  3  0  0  0  0  0  0
   -3.9630   -1.9840   -1.9850 C   0  0  0  0  0  3  0  0  0  0  0  0
   -4.1870   -0.8170   -1.2660 C   0  0  0  0  0  0  0  0  0  0  0  0
   -3.7930   -0.8040    0.0500 C   0  0  0  0  0  3  0  0  0  0  0  0
   -3.2150   -1.9320    0.6480 C   0  0  0  0  0  3  0  0  0  0  0  0
   -4.7360    0.3110   -1.8660 O   0  0  0  0  0  0  0  0  0  0  0  0
   -5.4620    0.0680   -3.0790 C   0  0  0  0  0  1  0  0  0  0  0  0
    0.5970   -6.3930    0.6150 O   0  0  0  0  0  0  0  0  0  0  0  0
    0.4090   -6.5750   -0.8250 C   0  0  2  0  0  3  0  0  0  0  0  0
   -0.4250   -7.7870   -1.1870 C   0  0  0  0  0  2  0  0  0  0  0  0
   -1.8360   -7.3350   -1.7340 C   0  0  0  0  0  1  0  0  0  0  0  0
    1.7330   -6.6860   -1.5250 C   0  0  0  0  0  2  0  0  0  0  0  0
    1.7940   -5.7600   -2.7510 C   0  0  0  0  0  2  0  0  0  0  0  0
   -0.0980   -4.4750   -3.7500 C   0  0  0  0  0  1  0  0  0  0  0  0
    0.9230   -4.5390   -2.6000 C   0  0  0  0  0  2  0  0  0  0  0  0
  1  2  2  0  0  0  0
  3  1  1  0  0  0  0
  4  3  2  0  0  0  0
  5  4  1  0  0  0  0
  5 10  1  0  0  0  0
  6  5  2  0  0  0  0
  7  6  1  0  0  0  0
  7  8  2  0  0  0  0
  8  9  1  0  0  0  0
  9 10  2  0  0  0  0
 11  8  1  0  0  0  0
 12 11  1  0  0  0  0
 13  1  1  0  0  0  0
 14 17  1  6  0  0  0
 14 13  1  0  0  0  0
 15 14  1  0  0  0  0
 16 15  1  0  0  0  0
 18 20  1  0  0  0  0
 18 17  1  0  0  0  0
 19 20  1  0  0  0  0
M  END
>  <MODEL>
9

>  <REMARK>
 VINA RESULT:      -3.0      6.702     10.153
  Name = bg33_2_ligand
  12 active torsions:
  status: ('A' for Active; 'I' for Inactive)
    1  A    between atoms: C_1  and  C_2
    2  A    between atoms: C_2  and  C_3
    3  A    between atoms: C_3  and  C_4
    4  A    between atoms: C_4  and  C_5
    5  A    between atoms: C_5  and  C_6
    6  A    between atoms: C_5  and  O_8
    7  A    between atoms: C_6  and  C_7
    8  A    between atoms: O_8  and  C_9
    9  A    between atoms: C_9  and  C_11
   10  A    between atoms: C_12  and  C_13
   11  A    between atoms: C_16  and  O_17
   12  A    between atoms: O_17  and  C_18
                            x       y       z     vdW  Elec       q    Type
                         _______ _______ _______ _____ _____    ______ ____

>  <TORSDO>
F 9

$$$$
