ox2_shuffle_ligand
 OpenBabel10092621213D

 18 19  0  0  0  0  0  0  0  0999 V2000
    5.6640   -6.5500    5.6140 C   0  0  0  0  0  0  0  0  0  0  0  0
    6.2840   -7.4490    6.4670 C   0  0  0  0  0  3  0  0  0  0  0  0
    5.9990   -7.4490    7.8150 C   0  0  0  0  0  3  0  0  0  0  0  0
    5.0880   -6.5390    8.3370 C   0  0  0  0  0  0  0  0  0  0  0  0
    4.4650   -5.6200    7.4810 C   0  0  0  0  0  0  0  0  0  0  0  0
    4.7580   -5.6390    6.1230 C   0  0  0  0  0  3  0  0  0  0  0  0
    7.3110   -6.3660    3.8700 C   0  0  0  0  0  1  0  0  0  0  0  0
    5.9910   -6.6120    4.2830 O   0  0  0  0  0  0  0  0  0  0  0  0
    4.7750   -6.5330    9.8110 C   0  0  0  0  0  0  0  0  0  0  0  0
    5.2180   -5.6520   10.5120 O   0  0  0  0  0  0  0  0  0  0  0  0
    3.9480   -7.6060   10.4000 C   0  0  0  0  0  0  0  0  0  0  0  0
    2.5610   -7.5240   10.3800 C   0  0  0  0  0  3  0  0  0  0  0  0
    1.8010   -8.5340   10.9500 C   0  0  0  0  0  3  0  0  0  0  0  0
    2.4270   -9.6330   11.5330 C   0  0  0  0  0  3  0  0  0  0  0  0
    3.8140   -9.7110   11.5670 C   0  0  0  0  0  3  0  0  0  0  0  0
    4.5830   -8.6860   11.0100 C   0  0  0  0  0  3  0  0  0  0  0  0
    3.5730   -4.7220    7.9860 O   0  0  0  0  0  0  0  0  0  0  0  0
    2.8970   -4.3080    7.3920 H   0  0  0  0  0  0  0  0  0  0  0  0
  1  6  2  0  0  0  0
  1  2  1  0  0  0  0
  2  3  2  0  0  0  0
  3  4  1  0  0  0  0
  4  9  1  0  0  0  0
  5 17  1  0  0  0  0
  5  4  2  0  0  0  0
  6  5  1  0  0  0  0
  7  8  1  0  0  0  0
  8  1  1  0  0  0  0
  9 11  1  0  0  0  0
  9 10  2  0  0  0  0
 11 16  1  0  0  0  0
 12 11  2  0  0  0  0
 12 13  1  0  0  0  0
 13 14  2  0  0  0  0
 14 15  1  0  0  0  0
 16 15  2  0  0  0  0
 18 17  1  0  0  0  0
M  END
>  <MODEL>
1

>  <REMARK>
 VINA RESULT:      -4.4      0.000      0.000
  Name = ox2_shuffle_ligand
  5 active torsions:
  status: ('A' for Active; 'I' for Inactive)
    1  A    between atoms: C_1  and  O_2
    2  A    between atoms: O_2  and  C_3
    3  A    between atoms: C_6  and  C_7
    4  A    between atoms: C_7  and  C_9
    5  A    between atoms: C_15  and  O_16
                            x       y       z     vdW  Elec       q    Type
                         _______ _______ _______ _____ _____    ______ ____

>  <TORSDO>
F 4

$$$$
ox2_shuffle_ligand
 OpenBabel10092621213D

 18 19  0  0  0  0  0  0  0  0999 V2000
   -3.3990   -6.6350    9.0810 C   0  0  0  0  0  0  0  0  0  0  0  0
   -4.5710   -6.2190    8.4690 C   0  0  0  0  0  3  0  0  0  0  0  0
   -4.5600   -5.1740    7.5700 C   0  0  0  0  0  3  0  0  0  0  0  0
   -3.3710   -4.5200    7.2710 C   0  0  0  0  0  0  0  0  0  0  0  0
   -2.1840   -4.9300    7.8950 C   0  0  0  0  0  0  0  0  0  0  0  0
   -2.2110   -5.9900    8.7930 C   0  0  0  0  0  3  0  0  0  0  0  0
   -2.3410   -8.1140   10.6570 C   0  0  0  0  0  1  0  0  0  0  0  0
   -3.4840   -7.6850    9.9600 O   0  0  0  0  0  0  0  0  0  0  0  0
   -3.3550   -3.3770    6.2910 C   0  0  0  0  0  0  0  0  0  0  0  0
   -2.9860   -3.5700    5.1540 O   0  0  0  0  0  0  0  0  0  0  0  0
   -3.7670   -2.0240    6.7180 C   0  0  0  0  0  0  0  0  0  0  0  0
   -4.9320   -1.8370    7.4530 C   0  0  0  0  0  3  0  0  0  0  0  0
   -5.3110   -0.5590    7.8340 C   0  0  0  0  0  3  0  0  0  0  0  0
   -4.5200    0.5350    7.4880 C   0  0  0  0  0  3  0  0  0  0  0  0
   -3.3630    0.3520    6.7410 C   0  0  0  0  0  3  0  0  0  0  0  0
   -2.9880   -0.9330    6.3400 C   0  0  0  0  0  3  0  0  0  0  0  0
   -1.0140   -4.2920    7.6100 O   0  0  0  0  0  0  0  0  0  0  0  0
   -0.2050   -4.4770    8.1500 H   0  0  0  0  0  0  0  0  0  0  0  0
  1  8  1  0  0  0  0
  2  1  2  0  0  0  0
  3  2  1  0  0  0  0
  4  3  2  0  0  0  0
  4  5  1  0  0  0  0
  5  6  2  0  0  0  0
  6  1  1  0  0  0  0
  8  7  1  0  0  0  0
  9 11  1  0  0  0  0
  9  4  1  0  0  0  0
 10  9  2  0  0  0  0
 11 12  1  0  0  0  0
 12 13  2  0  0  0  0
 14 13  1  0  0  0  0
 15 14  2  0  0  0  0
 16 11  2  0  0  0  0
 16 15  1  0  0  0  0
 17  5  1  0  0  0  0
 17 18  1  0  0  0  0
M  END
>  <MODEL>
2

>  <REMARK>
 VINA RESULT:      -4.4      7.961     10.278
  Name = ox2_shuffle_ligand
  5 active torsions:
  status: ('A' for Active; 'I' for Inactive)
    1  A    between atoms: C_1  and  O_2
    2  A    between atoms: O_2  and  C_3
    3  A    between atoms: C_6  and  C_7
    4  A    between atoms: C_7  and  C_9
    5  A    between atoms: C_15  and  O_16
                            x       y       z     vdW  Elec       q    Type
                         _______ _______ _______ _____ _____    ______ ____

>  <TORSDO>
F 4

$$$$
ox2_shuffle_ligand
 OpenBabel10092621213D

 18 19  0  0  0  0  0  0  0  0999 V2000
   -3.4840   -6.6070    9.1110 C   0  0  0  0  0  0  0  0  0  0  0  0
   -4.6430   -6.1780    8.4830 C   0  0  0  0  0  3  0  0  0  0  0  0
   -4.6060   -5.1460    7.5700 C   0  0  0  0  0  3  0  0  0  0  0  0
   -3.4030   -4.5170    7.2740 C   0  0  0  0  0  0  0  0  0  0  0  0
   -2.2290   -4.9400    7.9140 C   0  0  0  0  0  0  0  0  0  0  0  0
   -2.2820   -5.9870    8.8250 C   0  0  0  0  0  3  0  0  0  0  0  0
   -3.2670   -8.9510    9.6080 C   0  0  0  0  0  1  0  0  0  0  0  0
   -3.5950   -7.6440   10.0030 O   0  0  0  0  0  0  0  0  0  0  0  0
   -3.3570   -3.3870    6.2790 C   0  0  0  0  0  0  0  0  0  0  0  0
   -2.9800   -3.6010    5.1490 O   0  0  0  0  0  0  0  0  0  0  0  0
   -3.7520   -2.0220    6.6840 C   0  0  0  0  0  0  0  0  0  0  0  0
   -2.9780   -0.9250    6.3260 C   0  0  0  0  0  3  0  0  0  0  0  0
   -3.3570    0.3470    6.7250 C   0  0  0  0  0  3  0  0  0  0  0  0
   -4.5160    0.5260    7.4760 C   0  0  0  0  0  3  0  0  0  0  0  0
   -5.2840   -0.5700    7.8470 C   0  0  0  0  0  3  0  0  0  0  0  0
   -4.8960   -1.8560    7.4610 C   0  0  0  0  0  3  0  0  0  0  0  0
   -1.0450   -4.3260    7.6310 O   0  0  0  0  0  0  0  0  0  0  0  0
   -1.0010   -3.3390    7.5770 H   0  0  0  0  0  0  0  0  0  0  0  0
  1  8  1  0  0  0  0
  2  1  2  0  0  0  0
  3  2  1  0  0  0  0
  4  3  2  0  0  0  0
  4  5  1  0  0  0  0
  5  6  2  0  0  0  0
  6  1  1  0  0  0  0
  7  8  1  0  0  0  0
  9 11  1  0  0  0  0
  9  4  1  0  0  0  0
 10  9  2  0  0  0  0
 11 16  1  0  0  0  0
 12 11  2  0  0  0  0
 12 13  1  0  0  0  0
 13 14  2  0  0  0  0
 14 15  1  0  0  0  0
 16 15  2  0  0  0  0
 17  5  1  0  0  0  0
 18 17  1  0  0  0  0
M  END
>  <MODEL>
3

>  <REMARK>
 VINA RESULT:      -4.3      8.011     10.351
  Name = ox2_shuffle_ligand
  5 active torsions:
  status: ('A' for Active; 'I' for Inactive)
    1  A    between atoms: C_1  and  O_2
    2  A    between atoms: O_2  and  C_3
    3  A    between atoms: C_6  and  C_7
    4  A    between atoms: C_7  and  C_9
    5  A    between atoms: C_15  and  O_16
                            x       y       z     vdW  Elec       q    Type
                         _______ _______ _______ _____ _____    ______ ____

>  <TORSDO>
F 4

$$$$
ox2_shuffle_ligand
 OpenBabel10092621213D

 18 19  0  0  0  0  0  0  0  0999 V2000
   -5.6700   -3.5570    7.8240 C   0  0  0  0  0  0  0  0  0  0  0  0
   -5.7470   -2.2670    8.3260 C   0  0  0  0  0  3  0  0  0  0  0  0
   -4.8990   -1.2840    7.8650 C   0  0  0  0  0  3  0  0  0  0  0  0
   -3.9490   -1.5760    6.8940 C   0  0  0  0  0  0  0  0  0  0  0  0
   -3.8600   -2.8820    6.3890 C   0  0  0  0  0  0  0  0  0  0  0  0
   -4.7280   -3.8600    6.8590 C   0  0  0  0  0  3  0  0  0  0  0  0
   -6.0680   -5.6260    8.9850 C   0  0  0  0  0  1  0  0  0  0  0  0
   -6.5500   -4.4840    8.3240 O   0  0  0  0  0  0  0  0  0  0  0  0
   -3.0190   -0.5050    6.3890 C   0  0  0  0  0  0  0  0  0  0  0  0
   -2.9120   -0.3190    5.1980 O   0  0  0  0  0  0  0  0  0  0  0  0
   -2.2260    0.3010    7.3390 C   0  0  0  0  0  0  0  0  0  0  0  0
   -2.3550    1.6850    7.3740 C   0  0  0  0  0  3  0  0  0  0  0  0
   -1.5930    2.4280    8.2640 C   0  0  0  0  0  3  0  0  0  0  0  0
   -0.7070    1.7860    9.1270 C   0  0  0  0  0  3  0  0  0  0  0  0
   -0.5660    0.4050    9.0840 C   0  0  0  0  0  3  0  0  0  0  0  0
   -1.3190   -0.3440    8.1760 C   0  0  0  0  0  3  0  0  0  0  0  0
   -2.9290   -3.1780    5.4390 O   0  0  0  0  0  0  0  0  0  0  0  0
   -1.9930   -2.8770    5.5520 H   0  0  0  0  0  0  0  0  0  0  0  0
  1  8  1  0  0  0  0
  1  2  1  0  0  0  0
  3  2  2  0  0  0  0
  4  3  1  0  0  0  0
  5  6  1  0  0  0  0
  5  4  2  0  0  0  0
  6  1  2  0  0  0  0
  8  7  1  0  0  0  0
  9  4  1  0  0  0  0
  9 11  1  0  0  0  0
 10  9  2  0  0  0  0
 11 12  2  0  0  0  0
 11 16  1  0  0  0  0
 12 13  1  0  0  0  0
 13 14  2  0  0  0  0
 15 14  1  0  0  0  0
 16 15  2  0  0  0  0
 17 18  1  0  0  0  0
 17  5  1  0  0  0  0
M  END
>  <MODEL>
4

>  <REMARK>
 VINA RESULT:      -4.3      9.479     11.308
  Name = ox2_shuffle_ligand
  5 active torsions:
  status: ('A' for Active; 'I' for Inactive)
    1  A    between atoms: C_1  and  O_2
    2  A    between atoms: O_2  and  C_3
    3  A    between atoms: C_6  and  C_7
    4  A    between atoms: C_7  and  C_9
    5  A    between atoms: C_15  and  O_16
                            x       y       z     vdW  Elec       q    Type
                         _______ _______ _______ _____ _____    ______ ____

>  <TORSDO>
F 4

$$$$
ox2_shuffle_ligand
 OpenBabel10092621213D

 18 19  0  0  0  0  0  0  0  0999 V2000
   -5.1340   -5.9530    8.9880 C   0  0  0  0  0  0  0  0  0  0  0  0
   -5.8140   -4.8410    8.5170 C   0  0  0  0  0  3  0  0  0  0  0  0
   -5.1960   -3.9500    7.6660 C   0  0  0  0  0  3  0  0  0  0  0  0
   -3.8790   -4.1530    7.2750 C   0  0  0  0  0  0  0  0  0  0  0  0
   -3.1830   -5.2720    7.7550 C   0  0  0  0  0  0  0  0  0  0  0  0
   -3.8220   -6.1640    8.6070 C   0  0  0  0  0  3  0  0  0  0  0  0
   -7.0200   -7.3870    9.4100 C   0  0  0  0  0  1  0  0  0  0  0  0
   -5.8120   -6.8010    9.8260 O   0  0  0  0  0  0  0  0  0  0  0  0
   -3.1990   -3.1810    6.3460 C   0  0  0  0  0  0  0  0  0  0  0  0
   -2.9450   -3.5170    5.2120 O   0  0  0  0  0  0  0  0  0  0  0  0
   -2.8280   -1.8330    6.8220 C   0  0  0  0  0  0  0  0  0  0  0  0
   -2.1730   -1.6660    8.0370 C   0  0  0  0  0  3  0  0  0  0  0  0
   -1.8430   -0.3920    8.4740 C   0  0  0  0  0  3  0  0  0  0  0  0
   -2.1610    0.7180    7.6930 C   0  0  0  0  0  3  0  0  0  0  0  0
   -2.8280    0.5540    6.4860 C   0  0  0  0  0  3  0  0  0  0  0  0
   -3.1770   -0.7270    6.0510 C   0  0  0  0  0  3  0  0  0  0  0  0
   -1.8890   -5.4770    7.3790 O   0  0  0  0  0  0  0  0  0  0  0  0
   -1.2310   -5.8180    8.0350 H   0  0  0  0  0  0  0  0  0  0  0  0
  1  8  1  0  0  0  0
  2  1  2  0  0  0  0
  3  2  1  0  0  0  0
  4  3  2  0  0  0  0
  4  5  1  0  0  0  0
  5  6  2  0  0  0  0
  6  1  1  0  0  0  0
  7  8  1  0  0  0  0
  9 11  1  0  0  0  0
  9  4  1  0  0  0  0
 10  9  2  0  0  0  0
 11 12  1  0  0  0  0
 12 13  2  0  0  0  0
 14 13  1  0  0  0  0
 15 14  2  0  0  0  0
 16 15  1  0  0  0  0
 16 11  2  0  0  0  0
 17  5  1  0  0  0  0
 17 18  1  0  0  0  0
M  END
>  <MODEL>
5

>  <REMARK>
 VINA RESULT:      -4.2      8.391     10.791
  Name = ox2_shuffle_ligand
  5 active torsions:
  status: ('A' for Active; 'I' for Inactive)
    1  A    between atoms: C_1  and  O_2
    2  A    between atoms: O_2  and  C_3
    3  A    between atoms: C_6  and  C_7
    4  A    between atoms: C_7  and  C_9
    5  A    between atoms: C_15  and  O_16
                            x       y       z     vdW  Elec       q    Type
                         _______ _______ _______ _____ _____    ______ ____

>  <TORSDO>
F 4

$$$$
ox2_shuffle_ligand
 OpenBabel10092621213D

 18 19  0  0  0  0  0  0  0  0999 V2000
   -5.1200   -5.9000    9.0650 C   0  0  0  0  0  0  0  0  0  0  0  0
   -5.8150   -4.8080    8.5680 C   0  0  0  0  0  3  0  0  0  0  0  0
   -5.2070   -3.9260    7.7010 C   0  0  0  0  0  3  0  0  0  0  0  0
   -3.8840   -4.1160    7.3210 C   0  0  0  0  0  0  0  0  0  0  0  0
   -3.1730   -5.2130    7.8290 C   0  0  0  0  0  0  0  0  0  0  0  0
   -3.8030   -6.0980    8.6950 C   0  0  0  0  0  3  0  0  0  0  0  0
   -5.1670   -7.1930   11.0930 C   0  0  0  0  0  1  0  0  0  0  0  0
   -5.7900   -6.7410    9.9180 O   0  0  0  0  0  0  0  0  0  0  0  0
   -3.2150   -3.1530    6.3770 C   0  0  0  0  0  0  0  0  0  0  0  0
   -2.9490   -3.5080    5.2500 O   0  0  0  0  0  0  0  0  0  0  0  0
   -2.8680   -1.7890    6.8260 C   0  0  0  0  0  0  0  0  0  0  0  0
   -3.1730   -0.6840    6.0390 C   0  0  0  0  0  3  0  0  0  0  0  0
   -2.8270    0.5870    6.4710 C   0  0  0  0  0  3  0  0  0  0  0  0
   -2.1840    0.7570    7.6950 C   0  0  0  0  0  3  0  0  0  0  0  0
   -1.8650   -0.3460    8.4760 C   0  0  0  0  0  3  0  0  0  0  0  0
   -2.1960   -1.6310    8.0360 C   0  0  0  0  0  3  0  0  0  0  0  0
   -1.8740   -5.4060    7.4640 O   0  0  0  0  0  0  0  0  0  0  0  0
   -1.5070   -4.9350    6.6740 H   0  0  0  0  0  0  0  0  0  0  0  0
  1  8  1  0  0  0  0
  2  1  2  0  0  0  0
  3  2  1  0  0  0  0
  4  3  2  0  0  0  0
  4  5  1  0  0  0  0
  5  6  2  0  0  0  0
  6  1  1  0  0  0  0
  8  7  1  0  0  0  0
  9 11  1  0  0  0  0
  9  4  1  0  0  0  0
 10  9  2  0  0  0  0
 11 16  1  0  0  0  0
 12 13  1  0  0  0  0
 12 11  2  0  0  0  0
 13 14  2  0  0  0  0
 14 15  1  0  0  0  0
 16 15  2  0  0  0  0
 17  5  1  0  0  0  0
 18 17  1  0  0  0  0
M  END
>  <MODEL>
6

>  <REMARK>
 VINA RESULT:      -4.2      8.386     10.684
  Name = ox2_shuffle_ligand
  5 active torsions:
  status: ('A' for Active; 'I' for Inactive)
    1  A    between atoms: C_1  and  O_2
    2  A    between atoms: O_2  and  C_3
    3  A    between atoms: C_6  and  C_7
    4  A    between atoms: C_7  and  C_9
    5  A    between atoms: C_15  and  O_16
                            x       y       z     vdW  Elec       q    Type
                         _______ _______ _______ _____ _____    ______ ____

>  <TORSDO>
F 4

$$$$
ox2_shuffle_ligand
 OpenBabel10092621213D

 18 19  0  0  0  0  0  0  0  0999 V2000
   -5.0200   -4.7810    8.3580 C   0  0  0  0  0  0  0  0  0  0  0  0
   -5.0010   -3.5970    9.0780 C   0  0  0  0  0  3  0  0  0  0  0  0
   -3.8980   -2.7710    9.0390 C   0  0  0  0  0  3  0  0  0  0  0  0
   -2.7870   -3.1210    8.2820 C   0  0  0  0  0  0  0  0  0  0  0  0
   -2.7970   -4.3230    7.5590 C   0  0  0  0  0  0  0  0  0  0  0  0
   -3.9200   -5.1400    7.6020 C   0  0  0  0  0  3  0  0  0  0  0  0
   -6.7750   -5.7610    9.6800 C   0  0  0  0  0  1  0  0  0  0  0  0
   -6.1530   -5.5510    8.4380 O   0  0  0  0  0  0  0  0  0  0  0  0
   -1.5790   -2.2220    8.2380 C   0  0  0  0  0  0  0  0  0  0  0  0
   -0.4880   -2.6750    8.5000 O   0  0  0  0  0  0  0  0  0  0  0  0
   -1.7270   -0.7920    7.8970 C   0  0  0  0  0  0  0  0  0  0  0  0
   -2.5730   -0.3930    6.8690 C   0  0  0  0  0  3  0  0  0  0  0  0
   -2.6900    0.9530    6.5540 C   0  0  0  0  0  3  0  0  0  0  0  0
   -1.9660    1.9020    7.2720 C   0  0  0  0  0  3  0  0  0  0  0  0
   -1.1090    1.5040    8.2900 C   0  0  0  0  0  3  0  0  0  0  0  0
   -0.9760    0.1480    8.5990 C   0  0  0  0  0  3  0  0  0  0  0  0
   -1.7110   -4.6750    6.8160 O   0  0  0  0  0  0  0  0  0  0  0  0
   -0.8890   -4.9970    7.2630 H   0  0  0  0  0  0  0  0  0  0  0  0
  1  8  1  0  0  0  0
  1  2  1  0  0  0  0
  3  2  2  0  0  0  0
  4  3  1  0  0  0  0
  5  6  1  0  0  0  0
  5  4  2  0  0  0  0
  6  1  2  0  0  0  0
  8  7  1  0  0  0  0
  9  4  1  0  0  0  0
  9 10  2  0  0  0  0
 11  9  1  0  0  0  0
 11 16  1  0  0  0  0
 12 11  2  0  0  0  0
 13 12  1  0  0  0  0
 13 14  2  0  0  0  0
 14 15  1  0  0  0  0
 15 16  2  0  0  0  0
 17 18  1  0  0  0  0
 17  5  1  0  0  0  0
M  END
>  <MODEL>
7

>  <REMARK>
 VINA RESULT:      -4.1      8.200     10.532
  Name = ox2_shuffle_ligand
  5 active torsions:
  status: ('A' for Active; 'I' for Inactive)
    1  A    between atoms: C_1  and  O_2
    2  A    between atoms: O_2  and  C_3
    3  A    between atoms: C_6  and  C_7
    4  A    between atoms: C_7  and  C_9
    5  A    between atoms: C_15  and  O_16
                            x       y       z     vdW  Elec       q    Type
                         _______ _______ _______ _____ _____    ______ ____

>  <TORSDO>
F 4

$$$$
ox2_shuffle_ligand
 OpenBabel10092621213D

 18 19  0  0  0  0  0  0  0  0999 V2000
    5.6900   -6.4620    5.8350 C   0  0  0  0  0  0  0  0  0  0  0  0
    4.7360   -5.6730    6.4590 C   0  0  0  0  0  3  0  0  0  0  0  0
    4.4830   -5.8130    7.8070 C   0  0  0  0  0  3  0  0  0  0  0  0
    5.1770   -6.7550    8.5550 C   0  0  0  0  0  0  0  0  0  0  0  0
    6.1360   -7.5640    7.9270 C   0  0  0  0  0  0  0  0  0  0  0  0
    6.3850   -7.4040    6.5690 C   0  0  0  0  0  3  0  0  0  0  0  0
    7.1110   -6.6440    3.9020 C   0  0  0  0  0  1  0  0  0  0  0  0
    5.8940   -6.2640    4.4930 O   0  0  0  0  0  0  0  0  0  0  0  0
    4.9020   -6.9140   10.0280 C   0  0  0  0  0  0  0  0  0  0  0  0
    5.5970   -6.3330   10.8310 O   0  0  0  0  0  0  0  0  0  0  0  0
    3.8040   -7.7870   10.4900 C   0  0  0  0  0  0  0  0  0  0  0  0
    2.4770   -7.4120   10.3100 C   0  0  0  0  0  3  0  0  0  0  0  0
    1.4590   -8.2380   10.7620 C   0  0  0  0  0  3  0  0  0  0  0  0
    1.7660   -9.4440   11.3880 C   0  0  0  0  0  3  0  0  0  0  0  0
    3.0910   -9.8130   11.5820 C   0  0  0  0  0  3  0  0  0  0  0  0
    4.1200   -8.9750   11.1440 C   0  0  0  0  0  3  0  0  0  0  0  0
    6.8200   -8.4920    8.6530 O   0  0  0  0  0  0  0  0  0  0  0  0
    7.7450   -8.7360    8.4000 H   0  0  0  0  0  0  0  0  0  0  0  0
  1  2  2  0  0  0  0
  1  6  1  0  0  0  0
  2  3  1  0  0  0  0
  3  4  2  0  0  0  0
  4  9  1  0  0  0  0
  5  4  1  0  0  0  0
  5 17  1  0  0  0  0
  6  5  2  0  0  0  0
  7  8  1  0  0  0  0
  8  1  1  0  0  0  0
  9 11  1  0  0  0  0
  9 10  2  0  0  0  0
 11 16  1  0  0  0  0
 12 11  2  0  0  0  0
 12 13  1  0  0  0  0
 13 14  2  0  0  0  0
 14 15  1  0  0  0  0
 16 15  2  0  0  0  0
 18 17  1  0  0  0  0
M  END
>  <MODEL>
8

>  <REMARK>
 VINA RESULT:      -4.0      1.033      1.741
  Name = ox2_shuffle_ligand
  5 active torsions:
  status: ('A' for Active; 'I' for Inactive)
    1  A    between atoms: C_1  and  O_2
    2  A    between atoms: O_2  and  C_3
    3  A    between atoms: C_6  and  C_7
    4  A    between atoms: C_7  and  C_9
    5  A    between atoms: C_15  and  O_16
                            x       y       z     vdW  Elec       q    Type
                         _______ _______ _______ _____ _____    ______ ____

>  <TORSDO>
F 4

$$$$
ox2_shuffle_ligand
 OpenBabel10092621213D

 18 19  0  0  0  0  0  0  0  0999 V2000
   -1.0180   -5.5130    9.6080 C   0  0  0  0  0  0  0  0  0  0  0  0
   -0.5290   -4.2700    9.2390 C   0  0  0  0  0  3  0  0  0  0  0  0
   -1.1450   -3.5400    8.2460 C   0  0  0  0  0  3  0  0  0  0  0  0
   -2.2630   -4.0460    7.5960 C   0  0  0  0  0  0  0  0  0  0  0  0
   -2.7570   -5.3080    7.9570 C   0  0  0  0  0  0  0  0  0  0  0  0
   -2.1290   -6.0280    8.9660 C   0  0  0  0  0  3  0  0  0  0  0  0
    1.0390   -6.3160   10.5620 C   0  0  0  0  0  1  0  0  0  0  0  0
   -0.3590   -6.1820   10.6080 O   0  0  0  0  0  0  0  0  0  0  0  0
   -2.9390   -3.2530    6.5080 C   0  0  0  0  0  0  0  0  0  0  0  0
   -2.9410   -3.6750    5.3740 O   0  0  0  0  0  0  0  0  0  0  0  0
   -3.5780   -1.9580    6.8200 C   0  0  0  0  0  0  0  0  0  0  0  0
   -2.9510   -0.7610    6.4930 C   0  0  0  0  0  3  0  0  0  0  0  0
   -3.5590    0.4450    6.8040 C   0  0  0  0  0  3  0  0  0  0  0  0
   -4.8010    0.4570    7.4350 C   0  0  0  0  0  3  0  0  0  0  0  0
   -5.4230   -0.7370    7.7760 C   0  0  0  0  0  3  0  0  0  0  0  0
   -4.8050   -1.9540    7.4790 C   0  0  0  0  0  3  0  0  0  0  0  0
   -3.8520   -5.8140    7.3220 O   0  0  0  0  0  0  0  0  0  0  0  0
   -3.7400   -6.4770    6.5960 H   0  0  0  0  0  0  0  0  0  0  0  0
  1  8  1  0  0  0  0
  2  1  1  0  0  0  0
  3  2  2  0  0  0  0
  4  5  2  0  0  0  0
  4  3  1  0  0  0  0
  5  6  1  0  0  0  0
  6  1  2  0  0  0  0
  7  8  1  0  0  0  0
  9 11  1  0  0  0  0
  9  4  1  0  0  0  0
 10  9  2  0  0  0  0
 11 16  1  0  0  0  0
 12 13  1  0  0  0  0
 12 11  2  0  0  0  0
 13 14  2  0  0  0  0
 14 15  1  0  0  0  0
 16 15  2  0  0  0  0
 17  5  1  0  0  0  0
 18 17  1  0  0  0  0
M  END
>  <MODEL>
9

>  <REMARK>
 VINA RESULT:      -4.0      7.555      9.631
  Name = ox2_shuffle_ligand
  5 active torsions:
  status: ('A' for Active; 'I' for Inactive)
    1  A    between atoms: C_1  and  O_2
    2  A    between atoms: O_2  and  C_3
    3  A    between atoms: C_6  and  C_7
    4  A    between atoms: C_7  and  C_9
    5  A    between atoms: C_15  and  O_16
                            x       y       z     vdW  Elec       q    Type
                         _______ _______ _______ _____ _____    ______ ____

>  <TORSDO>
F 4

$$$$
