shuffle_control_pose0_reference
     RDKit          3D

 20 20  0  0  0  0  0  0  0  0999 V2000
    6.8190   -4.2750    2.9870 C   0  0  0  0  0  0  0  0  0  0  0  0
    7.2300   -4.3670    1.5440 C   0  0  0  0  0  0  0  0  0  0  0  0
    6.2840   -3.6210    0.6400 C   0  0  0  0  0  0  0  0  0  0  0  0
    6.7210   -3.6600   -0.7890 C   0  0  0  0  0  0  0  0  0  0  0  0
    5.7500   -3.0060   -1.7450 C   0  0  2  0  0  0  0  0  0  0  0  0
    6.4270   -2.8280   -3.0950 C   0  0  0  0  0  0  0  0  0  0  0  0
    5.8300   -1.7770   -3.9670 C   0  0  0  0  0  0  0  0  0  0  0  0
    5.3820   -1.7470   -1.2200 O   0  0  0  0  0  0  0  0  0  0  0  0
    4.1170   -1.5090   -0.8580 C   0  0  0  0  0  0  0  0  0  0  0  0
    3.2550   -2.3360   -0.9920 O   0  0  0  0  0  0  0  0  0  0  0  0
    3.8990   -0.1560   -0.2930 C   0  0  0  0  0  0  0  0  0  0  0  0
    2.6790    0.2390    0.0840 C   0  0  0  0  0  0  0  0  0  0  0  0
    2.3760    1.5830    0.6300 C   0  0  0  0  0  0  0  0  0  0  0  0
    3.3570    2.4670    0.9960 C   0  0  0  0  0  0  0  0  0  0  0  0
    3.0280    3.7200    1.5030 C   0  0  0  0  0  0  0  0  0  0  0  0
    1.7160    4.0890    1.6470 C   0  0  0  0  0  0  0  0  0  0  0  0
    1.3290    5.3040    2.1310 O   0  0  0  0  0  0  0  0  0  0  0  0
    2.3020    6.2490    2.5340 C   0  0  0  0  0  0  0  0  0  0  0  0
    0.7290    3.2060    1.2840 C   0  0  0  0  0  0  0  0  0  0  0  0
    1.0560    1.9530    0.7790 C   0  0  0  0  0  0  0  0  0  0  0  0
  2  1  1  0
  3  2  1  0
  4  3  1  0
  5  4  1  1
  6  5  1  0
  7  6  1  0
  8  5  1  0
  9  8  1  0
 10  9  2  0
 11  9  1  0
 12 11  2  3
 13 12  1  0
 14 13  1  0
 15 14  2  0
 16 15  1  0
 17 16  1  0
 18 17  1  0
 19 16  2  0
 20 19  1  0
 20 13  2  0
M  END
>  <structure>  (1) 
shuffle_control

>  <pose>  (1) 
0

>  <is_reference>  (1) 
1

>  <rmsd_to_reference_A>  (1) 
0.000

>  <vina_score>  (1) 


$$$$
