ox2_shuffle_ligand
 OpenBabel10092621213D

 18 19  0  0  0  0  0  0  0  0999 V2000
    3.4490    3.1430    1.6290 C   0  0  0  0  0  0  0  0  0  0  0  0
    4.8230    3.0010    1.7420 C   0  0  0  0  0  3  0  0  0  0  0  0
    5.4390    3.1060    2.9700 C   0  0  0  0  0  3  0  0  0  0  0  0
    4.6890    3.3640    4.1100 C   0  0  0  0  0  0  0  0  0  0  0  0
    3.3000    3.5180    4.0000 C   0  0  0  0  0  0  0  0  0  0  0  0
    2.6930    3.4020    2.7560 C   0  0  0  0  0  3  0  0  0  0  0  0
    3.2790    1.9540   -0.4560 C   0  0  0  0  0  1  0  0  0  0  0  0
    2.9010    3.0200    0.3760 O   0  0  0  0  0  0  0  0  0  0  0  0
    5.3590    3.4810    5.4540 C   0  0  0  0  0  0  0  0  0  0  0  0
    5.5670    4.5770    5.9240 O   0  0  0  0  0  0  0  0  0  0  0  0
    5.7780    2.2670    6.1860 C   0  0  0  0  0  0  0  0  0  0  0  0
    6.9410    1.5940    5.8320 C   0  0  0  0  0  3  0  0  0  0  0  0
    7.3120    0.4490    6.5210 C   0  0  0  0  0  3  0  0  0  0  0  0
    6.5260   -0.0190    7.5720 C   0  0  0  0  0  3  0  0  0  0  0  0
    5.3550    0.6450    7.9160 C   0  0  0  0  0  3  0  0  0  0  0  0
    4.9690    1.7880    7.2130 C   0  0  0  0  0  3  0  0  0  0  0  0
    2.5570    3.7750    5.1130 O   0  0  0  0  0  0  0  0  0  0  0  0
    1.8280    3.1590    5.3750 H   0  0  0  0  0  0  0  0  0  0  0  0
  1  2  2  0  0  0  0
  1  6  1  0  0  0  0
  2  3  1  0  0  0  0
  3  4  2  0  0  0  0
  4  9  1  0  0  0  0
  5  4  1  0  0  0  0
  5 17  1  0  0  0  0
  6  5  2  0  0  0  0
  7  8  1  0  0  0  0
  8  1  1  0  0  0  0
  9 10  2  0  0  0  0
  9 11  1  0  0  0  0
 11 16  1  0  0  0  0
 12 11  2  0  0  0  0
 12 13  1  0  0  0  0
 13 14  2  0  0  0  0
 14 15  1  0  0  0  0
 16 15  2  0  0  0  0
 17 18  1  0  0  0  0
M  END
>  <MODEL>
1

>  <REMARK>
 VINA RESULT:      -3.4      0.000      0.000
  Name = ox2_shuffle_ligand
  5 active torsions:
  status: ('A' for Active; 'I' for Inactive)
    1  A    between atoms: C_1  and  O_2
    2  A    between atoms: O_2  and  C_3
    3  A    between atoms: C_6  and  C_7
    4  A    between atoms: C_7  and  C_9
    5  A    between atoms: C_15  and  O_16
                            x       y       z     vdW  Elec       q    Type
                         _______ _______ _______ _____ _____    ______ ____

>  <TORSDO>
F 4

$$$$
ox2_shuffle_ligand
 OpenBabel10092621213D

 18 19  0  0  0  0  0  0  0  0999 V2000
    4.2580    6.1660    7.5200 C   0  0  0  0  0  0  0  0  0  0  0  0
    5.5090    6.1380    6.9220 C   0  0  0  0  0  3  0  0  0  0  0  0
    5.8100    5.1840    5.9730 C   0  0  0  0  0  3  0  0  0  0  0  0
    4.8650    4.2340    5.6100 C   0  0  0  0  0  0  0  0  0  0  0  0
    3.6010    4.2520    6.2180 C   0  0  0  0  0  0  0  0  0  0  0  0
    3.3110    5.2240    7.1680 C   0  0  0  0  0  3  0  0  0  0  0  0
    3.4900    8.3830    8.0540 C   0  0  0  0  0  1  0  0  0  0  0  0
    4.0250    7.1460    8.4510 O   0  0  0  0  0  0  0  0  0  0  0  0
    5.1910    3.1900    4.5760 C   0  0  0  0  0  0  0  0  0  0  0  0
    4.6440    3.2260    3.4970 O   0  0  0  0  0  0  0  0  0  0  0  0
    6.1580    2.1150    4.8820 C   0  0  0  0  0  0  0  0  0  0  0  0
    7.0080    1.6270    3.8960 C   0  0  0  0  0  3  0  0  0  0  0  0
    7.9000    0.6090    4.1960 C   0  0  0  0  0  3  0  0  0  0  0  0
    7.9510    0.0820    5.4860 C   0  0  0  0  0  3  0  0  0  0  0  0
    7.0900    0.5590    6.4670 C   0  0  0  0  0  3  0  0  0  0  0  0
    6.1780    1.5720    6.1640 C   0  0  0  0  0  3  0  0  0  0  0  0
    2.6700    3.3210    5.8700 O   0  0  0  0  0  0  0  0  0  0  0  0
    2.3340    3.2800    4.9400 H   0  0  0  0  0  0  0  0  0  0  0  0
  1  8  1  0  0  0  0
  2  1  2  0  0  0  0
  3  2  1  0  0  0  0
  4  3  2  0  0  0  0
  4  5  1  0  0  0  0
  5  6  2  0  0  0  0
  6  1  1  0  0  0  0
  7  8  1  0  0  0  0
  9 11  1  0  0  0  0
  9  4  1  0  0  0  0
 10  9  2  0  0  0  0
 11 16  1  0  0  0  0
 12 13  1  0  0  0  0
 12 11  2  0  0  0  0
 13 14  2  0  0  0  0
 14 15  1  0  0  0  0
 16 15  2  0  0  0  0
 17  5  1  0  0  0  0
 18 17  1  0  0  0  0
M  END
>  <MODEL>
2

>  <REMARK>
 VINA RESULT:      -3.3      2.558      4.601
  Name = ox2_shuffle_ligand
  5 active torsions:
  status: ('A' for Active; 'I' for Inactive)
    1  A    between atoms: C_1  and  O_2
    2  A    between atoms: O_2  and  C_3
    3  A    between atoms: C_6  and  C_7
    4  A    between atoms: C_7  and  C_9
    5  A    between atoms: C_15  and  O_16
                            x       y       z     vdW  Elec       q    Type
                         _______ _______ _______ _____ _____    ______ ____

>  <TORSDO>
F 4

$$$$
ox2_shuffle_ligand
 OpenBabel10092621213D

 18 19  0  0  0  0  0  0  0  0999 V2000
    4.8510    6.1050    7.0850 C   0  0  0  0  0  0  0  0  0  0  0  0
    6.0490    5.5520    7.5100 C   0  0  0  0  0  3  0  0  0  0  0  0
    6.2470    4.1890    7.4620 C   0  0  0  0  0  3  0  0  0  0  0  0
    5.2440    3.3510    6.9930 C   0  0  0  0  0  0  0  0  0  0  0  0
    4.0260    3.9040    6.5710 C   0  0  0  0  0  0  0  0  0  0  0  0
    3.8440    5.2810    6.6190 C   0  0  0  0  0  3  0  0  0  0  0  0
    3.4540    8.0640    7.0840 C   0  0  0  0  0  1  0  0  0  0  0  0
    4.7240    7.4700    7.1560 O   0  0  0  0  0  0  0  0  0  0  0  0
    5.4560    1.8620    6.9400 C   0  0  0  0  0  0  0  0  0  0  0  0
    4.8230    1.1410    7.6770 O   0  0  0  0  0  0  0  0  0  0  0  0
    6.4470    1.2830    6.0080 C   0  0  0  0  0  0  0  0  0  0  0  0
    6.5290    1.7320    4.6950 C   0  0  0  0  0  3  0  0  0  0  0  0
    7.4550    1.1690    3.8300 C   0  0  0  0  0  3  0  0  0  0  0  0
    8.3070    0.1610    4.2790 C   0  0  0  0  0  3  0  0  0  0  0  0
    8.2150   -0.2990    5.5870 C   0  0  0  0  0  3  0  0  0  0  0  0
    7.2710    0.2540    6.4560 C   0  0  0  0  0  3  0  0  0  0  0  0
    3.0360    3.0890    6.1130 O   0  0  0  0  0  0  0  0  0  0  0  0
    2.7050    3.1850    5.1850 H   0  0  0  0  0  0  0  0  0  0  0  0
  1  8  1  0  0  0  0
  1  2  1  0  0  0  0
  3  2  2  0  0  0  0
  4  3  1  0  0  0  0
  5  6  1  0  0  0  0
  5  4  2  0  0  0  0
  6  1  2  0  0  0  0
  7  8  1  0  0  0  0
  9  4  1  0  0  0  0
  9 10  2  0  0  0  0
 11 16  1  0  0  0  0
 11  9  1  0  0  0  0
 12 11  2  0  0  0  0
 13 14  2  0  0  0  0
 13 12  1  0  0  0  0
 14 15  1  0  0  0  0
 15 16  2  0  0  0  0
 17  5  1  0  0  0  0
 18 17  1  0  0  0  0
M  END
>  <MODEL>
3

>  <REMARK>
 VINA RESULT:      -3.3      3.053      4.679
  Name = ox2_shuffle_ligand
  5 active torsions:
  status: ('A' for Active; 'I' for Inactive)
    1  A    between atoms: C_1  and  O_2
    2  A    between atoms: O_2  and  C_3
    3  A    between atoms: C_6  and  C_7
    4  A    between atoms: C_7  and  C_9
    5  A    between atoms: C_15  and  O_16
                            x       y       z     vdW  Elec       q    Type
                         _______ _______ _______ _____ _____    ______ ____

>  <TORSDO>
F 4

$$$$
ox2_shuffle_ligand
 OpenBabel10092621213D

 18 19  0  0  0  0  0  0  0  0999 V2000
    6.3370    0.3750    7.3830 C   0  0  0  0  0  0  0  0  0  0  0  0
    7.0100    0.6400    6.2010 C   0  0  0  0  0  3  0  0  0  0  0  0
    6.6600    1.7240    5.4240 C   0  0  0  0  0  3  0  0  0  0  0  0
    5.6220    2.5600    5.8140 C   0  0  0  0  0  0  0  0  0  0  0  0
    4.9310    2.2900    7.0040 C   0  0  0  0  0  0  0  0  0  0  0  0
    5.3000    1.1980    7.7800 C   0  0  0  0  0  3  0  0  0  0  0  0
    8.0300   -1.2440    7.9310 C   0  0  0  0  0  1  0  0  0  0  0  0
    6.7410   -0.7170    8.1100 O   0  0  0  0  0  0  0  0  0  0  0  0
    5.2360    3.7430    4.9670 C   0  0  0  0  0  0  0  0  0  0  0  0
    5.5890    4.8530    5.2950 O   0  0  0  0  0  0  0  0  0  0  0  0
    4.4130    3.5540    3.7540 C   0  0  0  0  0  0  0  0  0  0  0  0
    3.0340    3.7180    3.8030 C   0  0  0  0  0  3  0  0  0  0  0  0
    2.2750    3.5230    2.6580 C   0  0  0  0  0  3  0  0  0  0  0  0
    2.8960    3.1740    1.4600 C   0  0  0  0  0  3  0  0  0  0  0  0
    4.2730    2.9960    1.4150 C   0  0  0  0  0  3  0  0  0  0  0  0
    5.0380    3.1730    2.5690 C   0  0  0  0  0  3  0  0  0  0  0  0
    3.9090    3.1030    7.3920 O   0  0  0  0  0  0  0  0  0  0  0  0
    3.4200    3.6390    6.7190 H   0  0  0  0  0  0  0  0  0  0  0  0
  1  6  1  0  0  0  0
  1  8  1  0  0  0  0
  2  1  2  0  0  0  0
  3  4  2  0  0  0  0
  3  2  1  0  0  0  0
  4  5  1  0  0  0  0
  5 17  1  0  0  0  0
  5  6  2  0  0  0  0
  7  8  1  0  0  0  0
  9 10  2  0  0  0  0
  9  4  1  0  0  0  0
 11 12  1  0  0  0  0
 11  9  1  0  0  0  0
 13 12  2  0  0  0  0
 14 13  1  0  0  0  0
 15 14  2  0  0  0  0
 15 16  1  0  0  0  0
 16 11  2  0  0  0  0
 18 17  1  0  0  0  0
M  END
>  <MODEL>
4

>  <REMARK>
 VINA RESULT:      -3.3      1.742      5.737
  Name = ox2_shuffle_ligand
  5 active torsions:
  status: ('A' for Active; 'I' for Inactive)
    1  A    between atoms: C_1  and  O_2
    2  A    between atoms: O_2  and  C_3
    3  A    between atoms: C_6  and  C_7
    4  A    between atoms: C_7  and  C_9
    5  A    between atoms: C_15  and  O_16
                            x       y       z     vdW  Elec       q    Type
                         _______ _______ _______ _____ _____    ______ ____

>  <TORSDO>
F 4

$$$$
ox2_shuffle_ligand
 OpenBabel10092621213D

 18 19  0  0  0  0  0  0  0  0999 V2000
    2.5420    3.5580    2.7080 C   0  0  0  0  0  0  0  0  0  0  0  0
    3.0630    3.7320    3.9810 C   0  0  0  0  0  3  0  0  0  0  0  0
    4.4090    3.5480    4.2170 C   0  0  0  0  0  3  0  0  0  0  0  0
    5.2580    3.1780    3.1820 C   0  0  0  0  0  0  0  0  0  0  0  0
    4.7340    2.9910    1.8950 C   0  0  0  0  0  0  0  0  0  0  0  0
    3.3770    3.1870    1.6710 C   0  0  0  0  0  3  0  0  0  0  0  0
    0.7220    4.4720    1.4270 C   0  0  0  0  0  1  0  0  0  0  0  0
    1.1950    3.7630    2.5430 O   0  0  0  0  0  0  0  0  0  0  0  0
    6.7280    2.9740    3.4370 C   0  0  0  0  0  0  0  0  0  0  0  0
    7.5280    3.7520    2.9700 O   0  0  0  0  0  0  0  0  0  0  0  0
    7.1930    1.8190    4.2340 C   0  0  0  0  0  0  0  0  0  0  0  0
    6.8780    1.7210    5.5850 C   0  0  0  0  0  3  0  0  0  0  0  0
    7.3340    0.6380    6.3220 C   0  0  0  0  0  3  0  0  0  0  0  0
    8.0970   -0.3530    5.7070 C   0  0  0  0  0  3  0  0  0  0  0  0
    8.4240   -0.2470    4.3610 C   0  0  0  0  0  3  0  0  0  0  0  0
    7.9810    0.8510    3.6200 C   0  0  0  0  0  3  0  0  0  0  0  0
    5.5590    2.6240    0.8750 O   0  0  0  0  0  0  0  0  0  0  0  0
    6.0840    1.7880    0.9390 H   0  0  0  0  0  0  0  0  0  0  0  0
  1  2  1  0  0  0  0
  2  3  2  0  0  0  0
  4  9  1  0  0  0  0
  4  3  1  0  0  0  0
  5  4  2  0  0  0  0
  6  5  1  0  0  0  0
  6  1  2  0  0  0  0
  7  8  1  0  0  0  0
  8  1  1  0  0  0  0
  9 11  1  0  0  0  0
 10  9  2  0  0  0  0
 11 12  1  0  0  0  0
 12 13  2  0  0  0  0
 14 13  1  0  0  0  0
 15 14  2  0  0  0  0
 16 11  2  0  0  0  0
 16 15  1  0  0  0  0
 17 18  1  0  0  0  0
 17  5  1  0  0  0  0
M  END
>  <MODEL>
5

>  <REMARK>
 VINA RESULT:      -3.3      1.809      3.006
  Name = ox2_shuffle_ligand
  5 active torsions:
  status: ('A' for Active; 'I' for Inactive)
    1  A    between atoms: C_1  and  O_2
    2  A    between atoms: O_2  and  C_3
    3  A    between atoms: C_6  and  C_7
    4  A    between atoms: C_7  and  C_9
    5  A    between atoms: C_15  and  O_16
                            x       y       z     vdW  Elec       q    Type
                         _______ _______ _______ _____ _____    ______ ____

>  <TORSDO>
F 4

$$$$
ox2_shuffle_ligand
 OpenBabel10092621213D

 18 19  0  0  0  0  0  0  0  0999 V2000
    2.0970    3.7560    2.8290 C   0  0  0  0  0  0  0  0  0  0  0  0
    2.9900    3.1080    1.9900 C   0  0  0  0  0  3  0  0  0  0  0  0
    4.3290    3.0380    2.3120 C   0  0  0  0  0  3  0  0  0  0  0  0
    4.8000    3.6230    3.4800 C   0  0  0  0  0  0  0  0  0  0  0  0
    3.9020    4.2880    4.3280 C   0  0  0  0  0  0  0  0  0  0  0  0
    2.5550    4.3440    3.9930 C   0  0  0  0  0  3  0  0  0  0  0  0
   -0.0830    4.7640    2.9640 C   0  0  0  0  0  1  0  0  0  0  0  0
    0.7790    3.7820    2.4490 O   0  0  0  0  0  0  0  0  0  0  0  0
    6.2610    3.5500    3.8340 C   0  0  0  0  0  0  0  0  0  0  0  0
    6.9490    4.5420    3.7420 O   0  0  0  0  0  0  0  0  0  0  0  0
    6.8590    2.2710    4.2730 C   0  0  0  0  0  0  0  0  0  0  0  0
    6.6510    1.8000    5.5640 C   0  0  0  0  0  3  0  0  0  0  0  0
    7.2300    0.6060    5.9640 C   0  0  0  0  0  3  0  0  0  0  0  0
    8.0100   -0.1260    5.0700 C   0  0  0  0  0  3  0  0  0  0  0  0
    8.2310    0.3530    3.7840 C   0  0  0  0  0  3  0  0  0  0  0  0
    7.6640    1.5640    3.3840 C   0  0  0  0  0  3  0  0  0  0  0  0
    4.3570    4.8670    5.4740 O   0  0  0  0  0  0  0  0  0  0  0  0
    3.8360    4.7830    6.3110 H   0  0  0  0  0  0  0  0  0  0  0  0
  1  6  1  0  0  0  0
  2  3  1  0  0  0  0
  2  1  2  0  0  0  0
  3  4  2  0  0  0  0
  4  9  1  0  0  0  0
  4  5  1  0  0  0  0
  5 17  1  0  0  0  0
  6  5  2  0  0  0  0
  8  1  1  0  0  0  0
  8  7  1  0  0  0  0
  9 11  1  0  0  0  0
 10  9  2  0  0  0  0
 11 12  1  0  0  0  0
 12 13  2  0  0  0  0
 14 13  1  0  0  0  0
 15 14  2  0  0  0  0
 16 15  1  0  0  0  0
 16 11  2  0  0  0  0
 17 18  1  0  0  0  0
M  END
>  <MODEL>
6

>  <REMARK>
 VINA RESULT:      -3.2      1.774      2.754
  Name = ox2_shuffle_ligand
  5 active torsions:
  status: ('A' for Active; 'I' for Inactive)
    1  A    between atoms: C_1  and  O_2
    2  A    between atoms: O_2  and  C_3
    3  A    between atoms: C_6  and  C_7
    4  A    between atoms: C_7  and  C_9
    5  A    between atoms: C_15  and  O_16
                            x       y       z     vdW  Elec       q    Type
                         _______ _______ _______ _____ _____    ______ ____

>  <TORSDO>
F 4

$$$$
ox2_shuffle_ligand
 OpenBabel10092621213D

 18 19  0  0  0  0  0  0  0  0999 V2000
    3.6400    2.5910    0.2720 C   0  0  0  0  0  0  0  0  0  0  0  0
    3.2390    2.8900    1.5650 C   0  0  0  0  0  3  0  0  0  0  0  0
    4.1720    3.0940    2.5580 C   0  0  0  0  0  3  0  0  0  0  0  0
    5.5280    2.9950    2.2760 C   0  0  0  0  0  0  0  0  0  0  0  0
    5.9400    2.6840    0.9720 C   0  0  0  0  0  0  0  0  0  0  0  0
    4.9870    2.4880   -0.0200 C   0  0  0  0  0  3  0  0  0  0  0  0
    2.7510    1.3460   -1.5860 C   0  0  0  0  0  1  0  0  0  0  0  0
    2.6580    2.4060   -0.6690 O   0  0  0  0  0  0  0  0  0  0  0  0
    6.5510    3.2160    3.3590 C   0  0  0  0  0  0  0  0  0  0  0  0
    7.1090    4.2860    3.4450 O   0  0  0  0  0  0  0  0  0  0  0  0
    6.8870    2.1260    4.3000 C   0  0  0  0  0  0  0  0  0  0  0  0
    7.7770    1.1250    3.9330 C   0  0  0  0  0  3  0  0  0  0  0  0
    8.0710    0.1020    4.8220 C   0  0  0  0  0  3  0  0  0  0  0  0
    7.4820    0.0850    6.0850 C   0  0  0  0  0  3  0  0  0  0  0  0
    6.5800    1.0780    6.4470 C   0  0  0  0  0  3  0  0  0  0  0  0
    6.2680    2.0990    5.5470 C   0  0  0  0  0  3  0  0  0  0  0  0
    7.2680    2.5810    0.6880 O   0  0  0  0  0  0  0  0  0  0  0  0
    7.5620    2.1720   -0.1630 H   0  0  0  0  0  0  0  0  0  0  0  0
  1  2  1  0  0  0  0
  2  3  2  0  0  0  0
  4  3  1  0  0  0  0
  4  9  1  0  0  0  0
  5  4  2  0  0  0  0
  6  1  2  0  0  0  0
  6  5  1  0  0  0  0
  7  8  1  0  0  0  0
  8  1  1  0  0  0  0
  9 10  2  0  0  0  0
  9 11  1  0  0  0  0
 11 16  1  0  0  0  0
 12 11  2  0  0  0  0
 12 13  1  0  0  0  0
 13 14  2  0  0  0  0
 14 15  1  0  0  0  0
 16 15  2  0  0  0  0
 17  5  1  0  0  0  0
 18 17  1  0  0  0  0
M  END
>  <MODEL>
7

>  <REMARK>
 VINA RESULT:      -3.1      1.858      2.733
  Name = ox2_shuffle_ligand
  5 active torsions:
  status: ('A' for Active; 'I' for Inactive)
    1  A    between atoms: C_1  and  O_2
    2  A    between atoms: O_2  and  C_3
    3  A    between atoms: C_6  and  C_7
    4  A    between atoms: C_7  and  C_9
    5  A    between atoms: C_15  and  O_16
                            x       y       z     vdW  Elec       q    Type
                         _______ _______ _______ _____ _____    ______ ____

>  <TORSDO>
F 4

$$$$
ox2_shuffle_ligand
 OpenBabel10092621213D

 18 19  0  0  0  0  0  0  0  0999 V2000
    4.6040    6.5830    4.9880 C   0  0  0  0  0  0  0  0  0  0  0  0
    5.8280    6.2430    5.5420 C   0  0  0  0  0  3  0  0  0  0  0  0
    6.0690    4.9560    5.9730 C   0  0  0  0  0  3  0  0  0  0  0  0
    5.0820    3.9850    5.8640 C   0  0  0  0  0  0  0  0  0  0  0  0
    3.8370    4.3260    5.3140 C   0  0  0  0  0  0  0  0  0  0  0  0
    3.6130    5.6260    4.8770 C   0  0  0  0  0  3  0  0  0  0  0  0
    5.4640    8.5370    3.8790 C   0  0  0  0  0  1  0  0  0  0  0  0
    4.4360    7.8810    4.5750 O   0  0  0  0  0  0  0  0  0  0  0  0
    5.3390    2.5790    6.3360 C   0  0  0  0  0  0  0  0  0  0  0  0
    4.7310    2.1470    7.2880 O   0  0  0  0  0  0  0  0  0  0  0  0
    6.3440    1.7360    5.6530 C   0  0  0  0  0  0  0  0  0  0  0  0
    6.6050    1.9050    4.2980 C   0  0  0  0  0  3  0  0  0  0  0  0
    7.5400    1.0970    3.6700 C   0  0  0  0  0  3  0  0  0  0  0  0
    8.2250    0.1250    4.3980 C   0  0  0  0  0  3  0  0  0  0  0  0
    7.9530   -0.0540    5.7490 C   0  0  0  0  0  3  0  0  0  0  0  0
    6.9990    0.7460    6.3800 C   0  0  0  0  0  3  0  0  0  0  0  0
    2.8630    3.3810    5.2070 O   0  0  0  0  0  0  0  0  0  0  0  0
    2.9380    2.5320    5.7110 H   0  0  0  0  0  0  0  0  0  0  0  0
  1  2  1  0  0  0  0
  2  3  2  0  0  0  0
  4  3  1  0  0  0  0
  4  9  1  0  0  0  0
  5  4  2  0  0  0  0
  6  1  2  0  0  0  0
  6  5  1  0  0  0  0
  7  8  1  0  0  0  0
  8  1  1  0  0  0  0
  9 10  2  0  0  0  0
 11  9  1  0  0  0  0
 11 16  1  0  0  0  0
 12 11  2  0  0  0  0
 13 12  1  0  0  0  0
 13 14  2  0  0  0  0
 14 15  1  0  0  0  0
 15 16  2  0  0  0  0
 17  5  1  0  0  0  0
 17 18  1  0  0  0  0
M  END
>  <MODEL>
8

>  <REMARK>
 VINA RESULT:      -3.0      2.670      3.785
  Name = ox2_shuffle_ligand
  5 active torsions:
  status: ('A' for Active; 'I' for Inactive)
    1  A    between atoms: C_1  and  O_2
    2  A    between atoms: O_2  and  C_3
    3  A    between atoms: C_6  and  C_7
    4  A    between atoms: C_7  and  C_9
    5  A    between atoms: C_15  and  O_16
                            x       y       z     vdW  Elec       q    Type
                         _______ _______ _______ _____ _____    ______ ____

>  <TORSDO>
F 4

$$$$
ox2_shuffle_ligand
 OpenBabel10092621213D

 18 19  0  0  0  0  0  0  0  0999 V2000
    2.7630    5.7840    4.0570 C   0  0  0  0  0  0  0  0  0  0  0  0
    4.0880    6.0190    4.3890 C   0  0  0  0  0  3  0  0  0  0  0  0
    5.0740    5.1360    4.0050 C   0  0  0  0  0  3  0  0  0  0  0  0
    4.7490    3.9930    3.2850 C   0  0  0  0  0  0  0  0  0  0  0  0
    3.4090    3.7450    2.9550 C   0  0  0  0  0  0  0  0  0  0  0  0
    2.4280    4.6490    3.3440 C   0  0  0  0  0  3  0  0  0  0  0  0
    0.8010    7.0990    3.6010 C   0  0  0  0  0  1  0  0  0  0  0  0
    1.8350    6.7080    4.4670 O   0  0  0  0  0  0  0  0  0  0  0  0
    5.8230    3.0250    2.8650 C   0  0  0  0  0  0  0  0  0  0  0  0
    6.1700    2.9830    1.7070 O   0  0  0  0  0  0  0  0  0  0  0  0
    6.4360    2.1160    3.8570 C   0  0  0  0  0  0  0  0  0  0  0  0
    6.0340    2.1470    5.1870 C   0  0  0  0  0  3  0  0  0  0  0  0
    6.6290    1.2970    6.1070 C   0  0  0  0  0  3  0  0  0  0  0  0
    7.6200    0.4080    5.6970 C   0  0  0  0  0  3  0  0  0  0  0  0
    8.0330    0.3870    4.3700 C   0  0  0  0  0  3  0  0  0  0  0  0
    7.4490    1.2540    3.4450 C   0  0  0  0  0  3  0  0  0  0  0  0
    3.0820    2.6250    2.2530 O   0  0  0  0  0  0  0  0  0  0  0  0
    2.1570    2.2720    2.2860 H   0  0  0  0  0  0  0  0  0  0  0  0
  1  2  1  0  0  0  0
  1  8  1  0  0  0  0
  3  2  2  0  0  0  0
  4  3  1  0  0  0  0
  5  4  2  0  0  0  0
  5  6  1  0  0  0  0
  6  1  2  0  0  0  0
  7  8  1  0  0  0  0
  9  4  1  0  0  0  0
  9 11  1  0  0  0  0
 10  9  2  0  0  0  0
 11 12  1  0  0  0  0
 12 13  2  0  0  0  0
 14 13  1  0  0  0  0
 15 14  2  0  0  0  0
 16 11  2  0  0  0  0
 16 15  1  0  0  0  0
 17 18  1  0  0  0  0
 17  5  1  0  0  0  0
M  END
>  <MODEL>
9

>  <REMARK>
 VINA RESULT:      -3.0      2.156      3.530
  Name = ox2_shuffle_ligand
  5 active torsions:
  status: ('A' for Active; 'I' for Inactive)
    1  A    between atoms: C_1  and  O_2
    2  A    between atoms: O_2  and  C_3
    3  A    between atoms: C_6  and  C_7
    4  A    between atoms: C_7  and  C_9
    5  A    between atoms: C_15  and  O_16
                            x       y       z     vdW  Elec       q    Type
                         _______ _______ _______ _____ _____    ______ ____

>  <TORSDO>
F 4

$$$$
