bgox31_5_ligand
     RDKit          3D

 29 30  0  0  0  0  0  0  0  0999 V2000
   -3.4882  -10.5403    5.3598 C   0  0  0  0  0  0  0  0  0  0  0  0
   -2.4854  -10.7820    4.3324 O   0  0  0  0  0  0  0  0  0  0  0  0
   -2.2005   -9.7833    3.3346 C   0  0  0  0  0  0  0  0  0  0  0  0
   -1.4982  -10.2818    2.2829 C   0  0  0  0  0  0  0  0  0  0  0  0
   -1.1494   -9.4254    1.2169 C   0  0  0  0  0  0  0  0  0  0  0  0
   -1.5035   -8.0921    1.1833 C   0  0  0  0  0  0  0  0  0  0  0  0
   -1.1308   -7.2798    0.0502 C   0  0  0  0  0  0  0  0  0  0  0  0
   -1.7653   -6.2402   -0.1693 O   0  0  0  0  0  0  0  0  0  0  0  0
   -0.0716   -7.7463   -0.8995 C   0  0  0  0  0  0  0  0  0  0  0  0
   -0.2560   -7.9001   -2.2626 C   0  0  0  0  0  0  0  0  0  0  0  0
    0.7951   -8.3521   -3.1070 C   0  0  0  0  0  0  0  0  0  0  0  0
    2.0353   -8.6422   -2.6230 C   0  0  0  0  0  0  0  0  0  0  0  0
    2.2663   -8.4787   -1.2781 C   0  0  0  0  0  0  0  0  0  0  0  0
    1.2049   -8.0628   -0.4403 C   0  0  0  0  0  0  0  0  0  0  0  0
   -2.2342   -7.5858    2.2552 C   0  0  0  0  0  0  0  0  0  0  0  0
   -2.5896   -6.2779    2.2626 O   0  0  0  0  0  0  0  0  0  0  0  0
   -2.5929   -8.4363    3.3367 C   0  0  0  0  0  0  0  0  0  0  0  0
   -4.0181   -9.6015    5.1414 H   0  0  0  0  0  0  0  0  0  0  0  0
   -4.2073  -11.3726    5.3735 H   0  0  0  0  0  0  0  0  0  0  0  0
   -2.9967  -10.4641    6.3410 H   0  0  0  0  0  0  0  0  0  0  0  0
   -1.2048  -11.3418    2.2630 H   0  0  0  0  0  0  0  0  0  0  0  0
   -0.5707   -9.8380    0.3773 H   0  0  0  0  0  0  0  0  0  0  0  0
   -1.2371   -7.6675   -2.7023 H   0  0  0  0  0  0  0  0  0  0  0  0
    0.6011   -8.4712   -4.1833 H   0  0  0  0  0  0  0  0  0  0  0  0
    2.8322   -8.9985   -3.2923 H   0  0  0  0  0  0  0  0  0  0  0  0
    3.2650   -8.6690   -0.8579 H   0  0  0  0  0  0  0  0  0  0  0  0
    1.3995   -7.9847    0.6396 H   0  0  0  0  0  0  0  0  0  0  0  0
   -3.1090   -5.9103    3.0210 H   0  0  0  0  0  0  0  0  0  0  0  0
   -3.1797   -8.0373    4.1771 H   0  0  0  0  0  0  0  0  0  0  0  0
  2  1  1  0
  3  2  1  0
  4  3  1  0
  5  4  2  0
  6  5  1  0
  7  6  1  0
  8  7  2  0
  9  7  1  0
 10  9  2  0
 11 10  1  0
 12 11  2  0
 13 12  1  0
 14 13  2  0
 14  9  1  0
 15  6  2  0
 16 15  1  0
 17 15  1  0
 17  3  2  0
  1 18  1  0
  1 19  1  0
  1 20  1  0
  4 21  1  0
  5 22  1  0
 10 23  1  0
 11 24  1  0
 12 25  1  0
 13 26  1  0
 14 27  1  0
 16 28  1  0
 17 29  1  0
M  END
$$$$
