bgox31_5_ligand
 OpenBabel10092621253D

 18 19  0  0  0  0  0  0  0  0999 V2000
   -6.6600   -2.9590    5.8850 C   0  0  0  0  0  0  0  0  0  0  0  0
   -6.9980   -3.8420    4.9080 C   0  0  0  0  0  3  0  0  0  0  0  0
   -5.9980   -4.3230    4.0350 C   0  0  0  0  0  3  0  0  0  0  0  0
   -4.6800   -3.9220    4.1160 C   0  0  0  0  0  0  0  0  0  0  0  0
   -4.3380   -3.0080    5.1090 C   0  0  0  0  0  0  0  0  0  0  0  0
   -5.3340   -2.5150    5.9970 C   0  0  0  0  0  3  0  0  0  0  0  0
   -8.6910   -1.5110    6.2210 C   0  0  0  0  0  1  0  0  0  0  0  0
   -7.7900   -2.5590    6.6820 O   0  0  0  0  0  0  0  0  0  0  0  0
   -3.7150   -4.4390    3.1760 C   0  0  0  0  0  0  0  0  0  0  0  0
   -2.8560   -5.2320    3.5830 O   0  0  0  0  0  0  0  0  0  0  0  0
   -3.6910   -3.9400    1.7660 C   0  0  0  0  0  0  0  0  0  0  0  0
   -4.2650   -2.7520    1.3460 C   0  0  0  0  0  3  0  0  0  0  0  0
   -4.2080   -2.3410   -0.0140 C   0  0  0  0  0  3  0  0  0  0  0  0
   -3.5770   -3.0820   -0.9660 C   0  0  0  0  0  3  0  0  0  0  0  0
   -2.9730   -4.2570   -0.5860 C   0  0  0  0  0  3  0  0  0  0  0  0
   -3.0650   -4.6760    0.7620 C   0  0  0  0  0  3  0  0  0  0  0  0
   -3.0510   -2.6010    5.2280 O   0  0  0  0  0  0  0  0  0  0  0  0
   -2.5500   -2.7790    6.0630 H   0  0  0  0  0  0  0  0  0  0  0  0
  1  6  1  0  0  0  0
  1  8  1  0  0  0  0
  2  1  2  0  0  0  0
  3  4  2  0  0  0  0
  3  2  1  0  0  0  0
  4  5  1  0  0  0  0
  5 17  1  0  0  0  0
  5  6  2  0  0  0  0
  7  8  1  0  0  0  0
  9 10  2  0  0  0  0
  9  4  1  0  0  0  0
 11  9  1  0  0  0  0
 12 11  1  0  0  0  0
 13 12  2  0  0  0  0
 14 15  2  0  0  0  0
 14 13  1  0  0  0  0
 15 16  1  0  0  0  0
 16 11  2  0  0  0  0
 17 18  1  0  0  0  0
M  END
>  <MODEL>
1

>  <REMARK>
 VINA RESULT:      -5.5      0.000      0.000
  Name = bgox31_5_ligand
  5 active torsions:
  status: ('A' for Active; 'I' for Inactive)
    1  A    between atoms: C_1  and  O_2
    2  A    between atoms: O_2  and  C_3
    3  A    between atoms: C_6  and  C_7
    4  A    between atoms: C_7  and  C_9
    5  A    between atoms: C_15  and  O_16
                            x       y       z     vdW  Elec       q    Type
                         _______ _______ _______ _____ _____    ______ ____

>  <TORSDO>
F 4

$$$$
bgox31_5_ligand
 OpenBabel10092621253D

 18 19  0  0  0  0  0  0  0  0999 V2000
   -5.0030   -2.2250   -0.7610 C   0  0  0  0  0  0  0  0  0  0  0  0
   -5.6210   -2.0220    0.4320 C   0  0  0  0  0  3  0  0  0  0  0  0
   -5.1430   -2.6920    1.5800 C   0  0  0  0  0  3  0  0  0  0  0  0
   -4.0760   -3.5660    1.5450 C   0  0  0  0  0  0  0  0  0  0  0  0
   -3.4530   -3.7820    0.3190 C   0  0  0  0  0  0  0  0  0  0  0  0
   -3.9210   -3.1140   -0.8460 C   0  0  0  0  0  3  0  0  0  0  0  0
   -6.8320   -0.7150   -1.6050 C   0  0  0  0  0  1  0  0  0  0  0  0
   -5.6120   -1.4790   -1.8320 O   0  0  0  0  0  0  0  0  0  0  0  0
   -3.6560   -4.2320    2.7530 C   0  0  0  0  0  0  0  0  0  0  0  0
   -2.6940   -5.0090    2.6990 O   0  0  0  0  0  0  0  0  0  0  0  0
   -4.4370   -4.0680    4.0190 C   0  0  0  0  0  0  0  0  0  0  0  0
   -4.2670   -3.0250    4.9140 C   0  0  0  0  0  3  0  0  0  0  0  0
   -5.0420   -2.9320    6.1020 C   0  0  0  0  0  3  0  0  0  0  0  0
   -5.9980   -3.8520    6.4130 C   0  0  0  0  0  3  0  0  0  0  0  0
   -6.2150   -4.8900    5.5380 C   0  0  0  0  0  3  0  0  0  0  0  0
   -5.4150   -4.9940    4.3770 C   0  0  0  0  0  3  0  0  0  0  0  0
   -2.3920   -4.6240    0.2470 O   0  0  0  0  0  0  0  0  0  0  0  0
   -2.5230   -5.5970    0.3720 H   0  0  0  0  0  0  0  0  0  0  0  0
  1  2  1  0  0  0  0
  2  3  2  0  0  0  0
  4  3  1  0  0  0  0
  4  9  1  0  0  0  0
  5  4  2  0  0  0  0
  6  1  2  0  0  0  0
  6  5  1  0  0  0  0
  8  7  1  0  0  0  0
  8  1  1  0  0  0  0
  9 11  1  0  0  0  0
 10  9  2  0  0  0  0
 11 16  2  0  0  0  0
 11 12  1  0  0  0  0
 12 13  2  0  0  0  0
 13 14  1  0  0  0  0
 15 14  2  0  0  0  0
 16 15  1  0  0  0  0
 17  5  1  0  0  0  0
 17 18  1  0  0  0  0
M  END
>  <MODEL>
2

>  <REMARK>
 VINA RESULT:      -4.9      2.259      5.540
  Name = bgox31_5_ligand
  5 active torsions:
  status: ('A' for Active; 'I' for Inactive)
    1  A    between atoms: C_1  and  O_2
    2  A    between atoms: O_2  and  C_3
    3  A    between atoms: C_6  and  C_7
    4  A    between atoms: C_7  and  C_9
    5  A    between atoms: C_15  and  O_16
                            x       y       z     vdW  Elec       q    Type
                         _______ _______ _______ _____ _____    ______ ____

>  <TORSDO>
F 4

$$$$
bgox31_5_ligand
 OpenBabel10092621253D

 18 19  0  0  0  0  0  0  0  0999 V2000
   -4.2890   -3.8710    3.7640 C   0  0  0  0  0  0  0  0  0  0  0  0
   -4.9930   -2.8960    3.1300 C   0  0  0  0  0  3  0  0  0  0  0  0
   -4.8100   -2.7020    1.7440 C   0  0  0  0  0  3  0  0  0  0  0  0
   -3.9280   -3.4530    0.9950 C   0  0  0  0  0  0  0  0  0  0  0  0
   -3.1990   -4.4430    1.6480 C   0  0  0  0  0  0  0  0  0  0  0  0
   -3.3720   -4.6510    3.0440 C   0  0  0  0  0  3  0  0  0  0  0  0
   -4.9550   -2.7350    5.9090 C   0  0  0  0  0  1  0  0  0  0  0  0
   -4.5810   -3.9350    5.1730 O   0  0  0  0  0  0  0  0  0  0  0  0
   -3.7770   -3.1850   -0.4150 C   0  0  0  0  0  0  0  0  0  0  0  0
   -2.7370   -2.6390   -0.8070 O   0  0  0  0  0  0  0  0  0  0  0  0
   -4.9010   -3.4620   -1.3630 C   0  0  0  0  0  0  0  0  0  0  0  0
   -5.0100   -2.9130   -2.6300 C   0  0  0  0  0  3  0  0  0  0  0  0
   -6.1090   -3.2180   -3.4780 C   0  0  0  0  0  3  0  0  0  0  0  0
   -7.1000   -4.0720   -3.0970 C   0  0  0  0  0  3  0  0  0  0  0  0
   -7.0160   -4.6570   -1.8560 C   0  0  0  0  0  3  0  0  0  0  0  0
   -5.9380   -4.3210   -1.0050 C   0  0  0  0  0  3  0  0  0  0  0  0
   -2.3320   -5.2100    0.9420 O   0  0  0  0  0  0  0  0  0  0  0  0
   -2.5670   -5.5120    0.0300 H   0  0  0  0  0  0  0  0  0  0  0  0
  1  8  1  0  0  0  0
  2  1  1  0  0  0  0
  3  2  2  0  0  0  0
  4  5  2  0  0  0  0
  4  3  1  0  0  0  0
  5  6  1  0  0  0  0
  6  1  2  0  0  0  0
  8  7  1  0  0  0  0
  9  4  1  0  0  0  0
 10  9  2  0  0  0  0
 11 16  1  0  0  0  0
 11  9  1  0  0  0  0
 12 11  2  0  0  0  0
 13 14  2  0  0  0  0
 13 12  1  0  0  0  0
 14 15  1  0  0  0  0
 15 16  2  0  0  0  0
 17  5  1  0  0  0  0
 18 17  1  0  0  0  0
M  END
>  <MODEL>
3

>  <REMARK>
 VINA RESULT:      -4.8      2.450      3.906
  Name = bgox31_5_ligand
  5 active torsions:
  status: ('A' for Active; 'I' for Inactive)
    1  A    between atoms: C_1  and  O_2
    2  A    between atoms: O_2  and  C_3
    3  A    between atoms: C_6  and  C_7
    4  A    between atoms: C_7  and  C_9
    5  A    between atoms: C_15  and  O_16
                            x       y       z     vdW  Elec       q    Type
                         _______ _______ _______ _____ _____    ______ ____

>  <TORSDO>
F 4

$$$$
bgox31_5_ligand
 OpenBabel10092621253D

 18 19  0  0  0  0  0  0  0  0999 V2000
   -3.4960   -4.3110    1.1170 C   0  0  0  0  0  0  0  0  0  0  0  0
   -3.0420   -5.0570    2.1590 C   0  0  0  0  0  3  0  0  0  0  0  0
   -3.4030   -4.6960    3.4750 C   0  0  0  0  0  3  0  0  0  0  0  0
   -4.1910   -3.5990    3.7600 C   0  0  0  0  0  0  0  0  0  0  0  0
   -4.6440   -2.8290    2.6920 C   0  0  0  0  0  0  0  0  0  0  0  0
   -4.2900   -3.1800    1.3600 C   0  0  0  0  0  3  0  0  0  0  0  0
   -2.8160   -6.2260   -0.3670 C   0  0  0  0  0  1  0  0  0  0  0  0
   -3.0340   -4.8010   -0.1560 O   0  0  0  0  0  0  0  0  0  0  0  0
   -4.5030   -3.2780    5.1320 C   0  0  0  0  0  0  0  0  0  0  0  0
   -3.7710   -2.4830    5.7360 O   0  0  0  0  0  0  0  0  0  0  0  0
   -5.6230   -3.9760    5.8370 C   0  0  0  0  0  0  0  0  0  0  0  0
   -5.8670   -3.8890    7.1970 C   0  0  0  0  0  3  0  0  0  0  0  0
   -6.9480   -4.5840    7.8030 C   0  0  0  0  0  3  0  0  0  0  0  0
   -7.8050   -5.3570    7.0800 C   0  0  0  0  0  3  0  0  0  0  0  0
   -7.6130   -5.4510    5.7220 C   0  0  0  0  0  3  0  0  0  0  0  0
   -6.5130   -4.7850    5.1320 C   0  0  0  0  0  3  0  0  0  0  0  0
   -5.4310   -1.7520    2.9320 O   0  0  0  0  0  0  0  0  0  0  0  0
   -5.0340   -0.9150    3.2790 H   0  0  0  0  0  0  0  0  0  0  0  0
  1  6  2  0  0  0  0
  1  2  1  0  0  0  0
  2  3  2  0  0  0  0
  3  4  1  0  0  0  0
  4  9  1  0  0  0  0
  5 17  1  0  0  0  0
  5  4  2  0  0  0  0
  6  5  1  0  0  0  0
  7  8  1  0  0  0  0
  8  1  1  0  0  0  0
  9 10  2  0  0  0  0
  9 11  1  0  0  0  0
 11 12  1  0  0  0  0
 12 13  2  0  0  0  0
 14 13  1  0  0  0  0
 15 14  2  0  0  0  0
 16 15  1  0  0  0  0
 16 11  2  0  0  0  0
 17 18  1  0  0  0  0
M  END
>  <MODEL>
4

>  <REMARK>
 VINA RESULT:      -4.6      1.972      6.012
  Name = bgox31_5_ligand
  5 active torsions:
  status: ('A' for Active; 'I' for Inactive)
    1  A    between atoms: C_1  and  O_2
    2  A    between atoms: O_2  and  C_3
    3  A    between atoms: C_6  and  C_7
    4  A    between atoms: C_7  and  C_9
    5  A    between atoms: C_15  and  O_16
                            x       y       z     vdW  Elec       q    Type
                         _______ _______ _______ _____ _____    ______ ____

>  <TORSDO>
F 4

$$$$
bgox31_5_ligand
 OpenBabel10092621253D

 18 19  0  0  0  0  0  0  0  0999 V2000
   -4.3570   -3.6950    1.0700 C   0  0  0  0  0  0  0  0  0  0  0  0
   -5.2040   -2.7170    1.4870 C   0  0  0  0  0  3  0  0  0  0  0  0
   -5.3140   -2.4410    2.8670 C   0  0  0  0  0  3  0  0  0  0  0  0
   -4.6070   -3.1360    3.8270 C   0  0  0  0  0  0  0  0  0  0  0  0
   -3.7500   -4.1460    3.3990 C   0  0  0  0  0  0  0  0  0  0  0  0
   -3.6270   -4.4360    2.0120 C   0  0  0  0  0  3  0  0  0  0  0  0
   -3.4330   -3.1190   -1.1990 C   0  0  0  0  0  1  0  0  0  0  0  0
   -4.3660   -3.8600   -0.3600 O   0  0  0  0  0  0  0  0  0  0  0  0
   -4.7860   -2.8140    5.2220 C   0  0  0  0  0  0  0  0  0  0  0  0
   -3.8150   -2.3930    5.8630 O   0  0  0  0  0  0  0  0  0  0  0  0
   -6.0910   -3.0890    5.9000 C   0  0  0  0  0  0  0  0  0  0  0  0
   -7.1450   -2.1930    5.9630 C   0  0  0  0  0  3  0  0  0  0  0  0
   -8.3580   -2.5190    6.6290 C   0  0  0  0  0  3  0  0  0  0  0  0
   -8.5510   -3.7290    7.2250 C   0  0  0  0  0  3  0  0  0  0  0  0
   -7.5380   -4.6560    7.1650 C   0  0  0  0  0  3  0  0  0  0  0  0
   -6.3220   -4.3110    6.5310 C   0  0  0  0  0  3  0  0  0  0  0  0
   -3.0300   -4.8430    4.3120 O   0  0  0  0  0  0  0  0  0  0  0  0
   -2.6520   -5.7270    4.0760 H   0  0  0  0  0  0  0  0  0  0  0  0
  1  2  2  0  0  0  0
  1  6  1  0  0  0  0
  2  3  1  0  0  0  0
  3  4  2  0  0  0  0
  4  9  1  0  0  0  0
  5  4  1  0  0  0  0
  5 17  1  0  0  0  0
  6  5  2  0  0  0  0
  7  8  1  0  0  0  0
  8  1  1  0  0  0  0
  9 10  2  0  0  0  0
  9 11  1  0  0  0  0
 11 12  2  0  0  0  0
 11 16  1  0  0  0  0
 12 13  1  0  0  0  0
 13 14  2  0  0  0  0
 15 14  1  0  0  0  0
 16 15  2  0  0  0  0
 18 17  1  0  0  0  0
M  END
>  <MODEL>
5

>  <REMARK>
 VINA RESULT:      -4.6      1.616      5.876
  Name = bgox31_5_ligand
  5 active torsions:
  status: ('A' for Active; 'I' for Inactive)
    1  A    between atoms: C_1  and  O_2
    2  A    between atoms: O_2  and  C_3
    3  A    between atoms: C_6  and  C_7
    4  A    between atoms: C_7  and  C_9
    5  A    between atoms: C_15  and  O_16
                            x       y       z     vdW  Elec       q    Type
                         _______ _______ _______ _____ _____    ______ ____

>  <TORSDO>
F 4

$$$$
bgox31_5_ligand
 OpenBabel10092621253D

 18 19  0  0  0  0  0  0  0  0999 V2000
   -3.8630   -5.5410    1.9430 C   0  0  0  0  0  0  0  0  0  0  0  0
   -3.7410   -5.9720    3.2270 C   0  0  0  0  0  3  0  0  0  0  0  0
   -4.0020   -5.0730    4.2840 C   0  0  0  0  0  3  0  0  0  0  0  0
   -4.3660   -3.7590    4.0740 C   0  0  0  0  0  0  0  0  0  0  0  0
   -4.4780   -3.3170    2.7590 C   0  0  0  0  0  0  0  0  0  0  0  0
   -4.2180   -4.2090    1.6830 C   0  0  0  0  0  3  0  0  0  0  0  0
   -3.2600   -6.2300   -0.4020 C   0  0  0  0  0  1  0  0  0  0  0  0
   -3.5540   -6.5700    0.9840 O   0  0  0  0  0  0  0  0  0  0  0  0
   -4.5970   -2.8910    5.2040 C   0  0  0  0  0  0  0  0  0  0  0  0
   -3.6210   -2.4010    5.7850 O   0  0  0  0  0  0  0  0  0  0  0  0
   -5.9840   -2.6790    5.7230 C   0  0  0  0  0  0  0  0  0  0  0  0
   -6.7650   -1.5700    5.4420 C   0  0  0  0  0  3  0  0  0  0  0  0
   -8.0760   -1.4310    5.9740 C   0  0  0  0  0  3  0  0  0  0  0  0
   -8.6350   -2.3830    6.7730 C   0  0  0  0  0  3  0  0  0  0  0  0
   -7.9020   -3.5100    7.0570 C   0  0  0  0  0  3  0  0  0  0  0  0
   -6.5850   -3.6240    6.5520 C   0  0  0  0  0  3  0  0  0  0  0  0
   -4.8450   -2.0350    2.5140 O   0  0  0  0  0  0  0  0  0  0  0  0
   -5.0550   -1.4270    3.2660 H   0  0  0  0  0  0  0  0  0  0  0  0
  1  2  1  0  0  0  0
  2  3  2  0  0  0  0
  4  3  1  0  0  0  0
  4  9  1  0  0  0  0
  5  4  2  0  0  0  0
  6  1  2  0  0  0  0
  6  5  1  0  0  0  0
  7  8  1  0  0  0  0
  8  1  1  0  0  0  0
  9 11  1  0  0  0  0
  9 10  2  0  0  0  0
 11 16  1  0  0  0  0
 12 11  2  0  0  0  0
 12 13  1  0  0  0  0
 13 14  2  0  0  0  0
 14 15  1  0  0  0  0
 16 15  2  0  0  0  0
 17  5  1  0  0  0  0
 17 18  1  0  0  0  0
M  END
>  <MODEL>
6

>  <REMARK>
 VINA RESULT:      -4.6      1.900      5.890
  Name = bgox31_5_ligand
  5 active torsions:
  status: ('A' for Active; 'I' for Inactive)
    1  A    between atoms: C_1  and  O_2
    2  A    between atoms: O_2  and  C_3
    3  A    between atoms: C_6  and  C_7
    4  A    between atoms: C_7  and  C_9
    5  A    between atoms: C_15  and  O_16
                            x       y       z     vdW  Elec       q    Type
                         _______ _______ _______ _____ _____    ______ ____

>  <TORSDO>
F 4

$$$$
bgox31_5_ligand
 OpenBabel10092621253D

 18 19  0  0  0  0  0  0  0  0999 V2000
   -5.6780   -3.8100   -2.1070 C   0  0  0  0  0  0  0  0  0  0  0  0
   -6.1850   -4.6280   -1.1470 C   0  0  0  0  0  3  0  0  0  0  0  0
   -5.5570   -4.6820    0.1160 C   0  0  0  0  0  3  0  0  0  0  0  0
   -4.4300   -3.9470    0.4220 C   0  0  0  0  0  0  0  0  0  0  0  0
   -3.9050   -3.1200   -0.5660 C   0  0  0  0  0  0  0  0  0  0  0  0
   -4.5260   -3.0530   -1.8440 C   0  0  0  0  0  3  0  0  0  0  0  0
   -7.6980   -4.5760   -3.3980 C   0  0  0  0  0  1  0  0  0  0  0  0
   -6.4230   -3.8750   -3.3380 O   0  0  0  0  0  0  0  0  0  0  0  0
   -3.8290   -4.0680    1.7280 C   0  0  0  0  0  0  0  0  0  0  0  0
   -2.8620   -4.8280    1.8680 O   0  0  0  0  0  0  0  0  0  0  0  0
   -4.4340   -3.3730    2.9080 C   0  0  0  0  0  0  0  0  0  0  0  0
   -4.0930   -3.6280    4.2260 C   0  0  0  0  0  3  0  0  0  0  0  0
   -4.7130   -2.9320    5.2990 C   0  0  0  0  0  3  0  0  0  0  0  0
   -5.6570   -1.9730    5.0880 C   0  0  0  0  0  3  0  0  0  0  0  0
   -6.0060   -1.6730    3.7930 C   0  0  0  0  0  3  0  0  0  0  0  0
   -5.4110   -2.3950    2.7320 C   0  0  0  0  0  3  0  0  0  0  0  0
   -2.8060   -2.3730   -0.2980 O   0  0  0  0  0  0  0  0  0  0  0  0
   -2.8750   -1.5840    0.2950 H   0  0  0  0  0  0  0  0  0  0  0  0
  1  6  2  0  0  0  0
  1  2  1  0  0  0  0
  2  3  2  0  0  0  0
  3  4  1  0  0  0  0
  4  9  1  0  0  0  0
  5 17  1  0  0  0  0
  5  4  2  0  0  0  0
  6  5  1  0  0  0  0
  7  8  1  0  0  0  0
  8  1  1  0  0  0  0
  9 10  2  0  0  0  0
  9 11  1  0  0  0  0
 11 12  1  0  0  0  0
 12 13  2  0  0  0  0
 14 13  1  0  0  0  0
 15 14  2  0  0  0  0
 16 11  2  0  0  0  0
 16 15  1  0  0  0  0
 17 18  1  0  0  0  0
M  END
>  <MODEL>
7

>  <REMARK>
 VINA RESULT:      -4.6      3.003      5.954
  Name = bgox31_5_ligand
  5 active torsions:
  status: ('A' for Active; 'I' for Inactive)
    1  A    between atoms: C_1  and  O_2
    2  A    between atoms: O_2  and  C_3
    3  A    between atoms: C_6  and  C_7
    4  A    between atoms: C_7  and  C_9
    5  A    between atoms: C_15  and  O_16
                            x       y       z     vdW  Elec       q    Type
                         _______ _______ _______ _____ _____    ______ ____

>  <TORSDO>
F 4

$$$$
bgox31_5_ligand
 OpenBabel10092621253D

 18 19  0  0  0  0  0  0  0  0999 V2000
    6.1330   -3.3110    8.4960 C   0  0  0  0  0  0  0  0  0  0  0  0
    5.9480   -2.9300    7.2040 C   0  0  0  0  0  3  0  0  0  0  0  0
    5.4920   -1.6240    6.9270 C   0  0  0  0  0  3  0  0  0  0  0  0
    5.2050   -0.7070    7.9170 C   0  0  0  0  0  0  0  0  0  0  0  0
    5.3820   -1.1020    9.2400 C   0  0  0  0  0  0  0  0  0  0  0  0
    5.8420   -2.4150    9.5360 C   0  0  0  0  0  3  0  0  0  0  0  0
    7.3960   -5.0890    9.7500 C   0  0  0  0  0  1  0  0  0  0  0  0
    6.5910   -4.6710    8.6110 O   0  0  0  0  0  0  0  0  0  0  0  0
    4.7210    0.6050    7.5610 C   0  0  0  0  0  0  0  0  0  0  0  0
    3.8160    1.1080    8.2390 O   0  0  0  0  0  0  0  0  0  0  0  0
    5.2300    1.2910    6.3320 C   0  0  0  0  0  0  0  0  0  0  0  0
    6.5490    1.6620    6.1320 C   0  0  0  0  0  3  0  0  0  0  0  0
    6.9640    2.3150    4.9390 C   0  0  0  0  0  3  0  0  0  0  0  0
    6.0920    2.5970    3.9310 C   0  0  0  0  0  3  0  0  0  0  0  0
    4.7780    2.2240    4.0800 C   0  0  0  0  0  3  0  0  0  0  0  0
    4.3670    1.6060    5.2840 C   0  0  0  0  0  3  0  0  0  0  0  0
    5.1230   -0.2250   10.2400 O   0  0  0  0  0  0  0  0  0  0  0  0
    5.6870    0.5810   10.3520 H   0  0  0  0  0  0  0  0  0  0  0  0
  1  8  1  0  0  0  0
  1  6  1  0  0  0  0
  2  1  2  0  0  0  0
  3  2  1  0  0  0  0
  3  4  2  0  0  0  0
  4  5  1  0  0  0  0
  5  6  2  0  0  0  0
  5 17  1  0  0  0  0
  8  7  1  0  0  0  0
  9  4  1  0  0  0  0
  9 10  2  0  0  0  0
 11  9  1  0  0  0  0
 12 11  1  0  0  0  0
 13 12  2  0  0  0  0
 14 15  2  0  0  0  0
 14 13  1  0  0  0  0
 15 16  1  0  0  0  0
 16 11  2  0  0  0  0
 17 18  1  0  0  0  0
M  END
>  <MODEL>
8

>  <REMARK>
 VINA RESULT:      -4.6     11.057     12.206
  Name = bgox31_5_ligand
  5 active torsions:
  status: ('A' for Active; 'I' for Inactive)
    1  A    between atoms: C_1  and  O_2
    2  A    between atoms: O_2  and  C_3
    3  A    between atoms: C_6  and  C_7
    4  A    between atoms: C_7  and  C_9
    5  A    between atoms: C_15  and  O_16
                            x       y       z     vdW  Elec       q    Type
                         _______ _______ _______ _____ _____    ______ ____

>  <TORSDO>
F 4

$$$$
bgox31_5_ligand
 OpenBabel10092621253D

 18 19  0  0  0  0  0  0  0  0999 V2000
   -8.4930   -1.8340    6.4640 C   0  0  0  0  0  0  0  0  0  0  0  0
   -7.9660   -3.0530    6.7510 C   0  0  0  0  0  3  0  0  0  0  0  0
   -6.6460   -3.3480    6.3470 C   0  0  0  0  0  3  0  0  0  0  0  0
   -5.8600   -2.4520    5.6510 C   0  0  0  0  0  0  0  0  0  0  0  0
   -6.4070   -1.2080    5.3460 C   0  0  0  0  0  0  0  0  0  0  0  0
   -7.7350   -0.8960    5.7470 C   0  0  0  0  0  3  0  0  0  0  0  0
  -10.4660   -0.3780    7.0320 C   0  0  0  0  0  1  0  0  0  0  0  0
   -9.8470   -1.6930    6.9340 O   0  0  0  0  0  0  0  0  0  0  0  0
   -4.5260   -2.8300    5.2500 C   0  0  0  0  0  0  0  0  0  0  0  0
   -3.5680   -2.4100    5.9110 O   0  0  0  0  0  0  0  0  0  0  0  0
   -4.3070   -3.6210    3.9990 C   0  0  0  0  0  0  0  0  0  0  0  0
   -3.4060   -4.6660    3.8820 C   0  0  0  0  0  3  0  0  0  0  0  0
   -3.2450   -5.3730    2.6590 C   0  0  0  0  0  3  0  0  0  0  0  0
   -3.9760   -5.0710    1.5490 C   0  0  0  0  0  3  0  0  0  0  0  0
   -4.9000   -4.0560    1.6310 C   0  0  0  0  0  3  0  0  0  0  0  0
   -5.0270   -3.3340    2.8410 C   0  0  0  0  0  3  0  0  0  0  0  0
   -5.6600   -0.2980    4.6740 O   0  0  0  0  0  0  0  0  0  0  0  0
   -5.7960    0.6700    4.8350 H   0  0  0  0  0  0  0  0  0  0  0  0
  1  2  1  0  0  0  0
  1  8  1  0  0  0  0
  3  2  2  0  0  0  0
  4  3  1  0  0  0  0
  5  4  2  0  0  0  0
  5  6  1  0  0  0  0
  6  1  2  0  0  0  0
  8  7  1  0  0  0  0
  9  4  1  0  0  0  0
  9 10  2  0  0  0  0
 11  9  1  0  0  0  0
 12 11  1  0  0  0  0
 13 12  2  0  0  0  0
 14 15  2  0  0  0  0
 14 13  1  0  0  0  0
 15 16  1  0  0  0  0
 16 11  2  0  0  0  0
 17 18  1  0  0  0  0
 17  5  1  0  0  0  0
M  END
>  <MODEL>
9

>  <REMARK>
 VINA RESULT:      -4.6      1.789      2.923
  Name = bgox31_5_ligand
  5 active torsions:
  status: ('A' for Active; 'I' for Inactive)
    1  A    between atoms: C_1  and  O_2
    2  A    between atoms: O_2  and  C_3
    3  A    between atoms: C_6  and  C_7
    4  A    between atoms: C_7  and  C_9
    5  A    between atoms: C_15  and  O_16
                            x       y       z     vdW  Elec       q    Type
                         _______ _______ _______ _____ _____    ______ ____

>  <TORSDO>
F 4

$$$$
