ox2_orig_f8_ligand
 OpenBabel10092621213D

 18 19  0  0  0  0  0  0  0  0999 V2000
   -0.3500    0.1710    7.1060 C   0  0  0  0  0  0  0  0  0  0  0  0
    0.0750   -0.9880    7.7200 C   0  0  0  0  0  3  0  0  0  0  0  0
    0.1980   -2.1540    6.9990 C   0  0  0  0  0  3  0  0  0  0  0  0
   -0.1160   -2.1710    5.6620 C   0  0  0  0  0  0  0  0  0  0  0  0
   -0.5310   -1.0010    5.0290 C   0  0  0  0  0  0  0  0  0  0  0  0
   -0.6460    0.1600    5.7610 C   0  0  0  0  0  3  0  0  0  0  0  0
    0.1810    1.3150    9.1320 C   0  0  0  0  0  1  0  0  0  0  0  0
   -0.4500    1.2820    7.8840 O   0  0  0  0  0  0  0  0  0  0  0  0
    0.0260   -3.4260    4.9160 C   0  0  0  0  0  0  0  0  0  0  0  0
   -0.9050   -3.8430    4.4810 O   0  0  0  0  0  0  0  0  0  0  0  0
    1.2270   -4.1260    4.5350 C   0  0  0  0  0  0  0  0  0  0  0  0
    1.8810   -3.7950    3.3810 C   0  0  0  0  0  3  0  0  0  0  0  0
    3.0350   -4.4560    3.0210 C   0  0  0  0  0  3  0  0  0  0  0  0
    3.5310   -5.4670    3.8100 C   0  0  0  0  0  3  0  0  0  0  0  0
    2.8850   -5.7900    4.9850 C   0  0  0  0  0  3  0  0  0  0  0  0
    1.7340   -5.1140    5.3620 C   0  0  0  0  0  3  0  0  0  0  0  0
   -0.8100   -1.0110    3.7160 O   0  0  0  0  0  0  0  0  0  0  0  0
   -1.6960   -1.3220    3.4010 H   0  0  0  0  0  0  0  0  0  0  0  0
  1  2  1  0  0  0  0
  1  8  1  0  0  0  0
  3  2  2  0  0  0  0
  4  3  1  0  0  0  0
  5  4  2  0  0  0  0
  5  6  1  0  0  0  0
  6  1  2  0  0  0  0
  8  7  1  0  0  0  0
  9  4  1  0  0  0  0
 10  9  2  0  0  0  0
 11  9  1  0  0  0  0
 11 16  1  0  0  0  0
 12 11  2  0  0  0  0
 13 12  1  0  0  0  0
 13 14  2  0  0  0  0
 14 15  1  0  0  0  0
 15 16  2  0  0  0  0
 17  5  1  0  0  0  0
 18 17  1  0  0  0  0
M  END
>  <MODEL>
1

>  <REMARK>
 VINA RESULT:      -3.3      0.000      0.000
  Name = ox2_orig_f8_ligand
  5 active torsions:
  status: ('A' for Active; 'I' for Inactive)
    1  A    between atoms: C_1  and  O_2
    2  A    between atoms: O_2  and  C_3
    3  A    between atoms: C_6  and  C_7
    4  A    between atoms: C_7  and  C_9
    5  A    between atoms: C_15  and  O_16
                            x       y       z     vdW  Elec       q    Type
                         _______ _______ _______ _____ _____    ______ ____

>  <TORSDO>
F 4

$$$$
ox2_orig_f8_ligand
 OpenBabel10092621213D

 18 19  0  0  0  0  0  0  0  0999 V2000
   -3.4090   -1.2760    2.8490 C   0  0  0  0  0  0  0  0  0  0  0  0
   -4.0560   -0.2040    3.4270 C   0  0  0  0  0  3  0  0  0  0  0  0
   -3.3850    0.6340    4.2880 C   0  0  0  0  0  3  0  0  0  0  0  0
   -2.0660    0.3970    4.5880 C   0  0  0  0  0  0  0  0  0  0  0  0
   -1.3980   -0.6740    3.9960 C   0  0  0  0  0  0  0  0  0  0  0  0
   -2.0800   -1.5020    3.1330 C   0  0  0  0  0  3  0  0  0  0  0  0
   -3.5020   -2.7400    0.9670 C   0  0  0  0  0  1  0  0  0  0  0  0
   -4.1380   -2.0600    2.0110 O   0  0  0  0  0  0  0  0  0  0  0  0
   -1.3730    1.3060    5.5070 C   0  0  0  0  0  0  0  0  0  0  0  0
   -0.6860    0.8320    6.2380 O   0  0  0  0  0  0  0  0  0  0  0  0
   -1.3370    2.7470    5.5060 C   0  0  0  0  0  0  0  0  0  0  0  0
   -1.5860    3.4440    6.6550 C   0  0  0  0  0  3  0  0  0  0  0  0
   -1.5410    4.8210    6.6570 C   0  0  0  0  0  3  0  0  0  0  0  0
   -1.2630    5.5090    5.5000 C   0  0  0  0  0  3  0  0  0  0  0  0
   -0.9920    4.8090    4.3430 C   0  0  0  0  0  3  0  0  0  0  0  0
   -1.0150    3.4220    4.3400 C   0  0  0  0  0  3  0  0  0  0  0  0
   -0.1010   -0.8870    4.2660 O   0  0  0  0  0  0  0  0  0  0  0  0
    0.2480   -1.8120    4.3200 H   0  0  0  0  0  0  0  0  0  0  0  0
  1  6  2  0  0  0  0
  1  2  1  0  0  0  0
  2  3  2  0  0  0  0
  3  4  1  0  0  0  0
  4  9  1  0  0  0  0
  5 17  1  0  0  0  0
  5  4  2  0  0  0  0
  6  5  1  0  0  0  0
  7  8  1  0  0  0  0
  8  1  1  0  0  0  0
  9 10  2  0  0  0  0
 11  9  1  0  0  0  0
 11 12  1  0  0  0  0
 12 13  2  0  0  0  0
 14 13  1  0  0  0  0
 15 14  2  0  0  0  0
 16 15  1  0  0  0  0
 16 11  2  0  0  0  0
 17 18  1  0  0  0  0
M  END
>  <MODEL>
2

>  <REMARK>
 VINA RESULT:      -3.0      4.043      7.400
  Name = ox2_orig_f8_ligand
  5 active torsions:
  status: ('A' for Active; 'I' for Inactive)
    1  A    between atoms: C_1  and  O_2
    2  A    between atoms: O_2  and  C_3
    3  A    between atoms: C_6  and  C_7
    4  A    between atoms: C_7  and  C_9
    5  A    between atoms: C_15  and  O_16
                            x       y       z     vdW  Elec       q    Type
                         _______ _______ _______ _____ _____    ______ ____

>  <TORSDO>
F 4

$$$$
ox2_orig_f8_ligand
 OpenBabel10092621213D

 18 19  0  0  0  0  0  0  0  0999 V2000
    6.5070   -2.6110    2.6970 C   0  0  0  0  0  0  0  0  0  0  0  0
    7.4280   -3.0400    3.6300 C   0  0  0  0  0  3  0  0  0  0  0  0
    7.8990   -2.1760    4.5920 C   0  0  0  0  0  3  0  0  0  0  0  0
    7.4620   -0.8740    4.6200 C   0  0  0  0  0  0  0  0  0  0  0  0
    6.5190   -0.4360    3.6920 C   0  0  0  0  0  0  0  0  0  0  0  0
    6.0530   -1.3120    2.7370 C   0  0  0  0  0  3  0  0  0  0  0  0
    5.3030   -4.6050    2.1770 C   0  0  0  0  0  1  0  0  0  0  0  0
    6.0910   -3.5210    1.7760 O   0  0  0  0  0  0  0  0  0  0  0  0
    7.9780    0.0250    5.6570 C   0  0  0  0  0  0  0  0  0  0  0  0
    8.6900    0.8050    5.3170 O   0  0  0  0  0  0  0  0  0  0  0  0
    7.5810    0.1430    7.0380 C   0  0  0  0  0  0  0  0  0  0  0  0
    7.5810   -0.9550    7.8510 C   0  0  0  0  0  3  0  0  0  0  0  0
    7.2120   -0.8420    9.1740 C   0  0  0  0  0  3  0  0  0  0  0  0
    6.8240    0.3740    9.6850 C   0  0  0  0  0  3  0  0  0  0  0  0
    6.8430    1.4890    8.8720 C   0  0  0  0  0  3  0  0  0  0  0  0
    7.2330    1.3840    7.5460 C   0  0  0  0  0  3  0  0  0  0  0  0
    6.0700    0.8280    3.7380 O   0  0  0  0  0  0  0  0  0  0  0  0
    5.5000    1.1770    3.0070 H   0  0  0  0  0  0  0  0  0  0  0  0
  1  6  2  0  0  0  0
  1  2  1  0  0  0  0
  2  3  2  0  0  0  0
  3  4  1  0  0  0  0
  4  9  1  0  0  0  0
  5 17  1  0  0  0  0
  5  4  2  0  0  0  0
  6  5  1  0  0  0  0
  8  7  1  0  0  0  0
  8  1  1  0  0  0  0
  9 11  1  0  0  0  0
 10  9  2  0  0  0  0
 11 16  2  0  0  0  0
 11 12  1  0  0  0  0
 12 13  2  0  0  0  0
 13 14  1  0  0  0  0
 15 14  2  0  0  0  0
 16 15  1  0  0  0  0
 18 17  1  0  0  0  0
M  END
>  <MODEL>
3

>  <REMARK>
 VINA RESULT:      -3.0      6.467      8.644
  Name = ox2_orig_f8_ligand
  5 active torsions:
  status: ('A' for Active; 'I' for Inactive)
    1  A    between atoms: C_1  and  O_2
    2  A    between atoms: O_2  and  C_3
    3  A    between atoms: C_6  and  C_7
    4  A    between atoms: C_7  and  C_9
    5  A    between atoms: C_15  and  O_16
                            x       y       z     vdW  Elec       q    Type
                         _______ _______ _______ _____ _____    ______ ____

>  <TORSDO>
F 4

$$$$
ox2_orig_f8_ligand
 OpenBabel10092621213D

 18 19  0  0  0  0  0  0  0  0999 V2000
    3.0730   -9.3340   -4.5260 C   0  0  0  0  0  0  0  0  0  0  0  0
    4.1280   -9.1170   -5.3870 C   0  0  0  0  0  3  0  0  0  0  0  0
    3.9280   -8.4670   -6.5840 C   0  0  0  0  0  3  0  0  0  0  0  0
    2.6690   -8.0420   -6.9330 C   0  0  0  0  0  0  0  0  0  0  0  0
    1.6000   -8.2430   -6.0620 C   0  0  0  0  0  0  0  0  0  0  0  0
    1.8140   -8.8910   -4.8660 C   0  0  0  0  0  3  0  0  0  0  0  0
    2.3010  -10.3640   -2.5160 C   0  0  0  0  0  1  0  0  0  0  0  0
    3.3470   -9.9860   -3.3640 O   0  0  0  0  0  0  0  0  0  0  0  0
    2.4840   -7.3500   -8.2120 C   0  0  0  0  0  0  0  0  0  0  0  0
    2.3460   -6.2510   -8.1580 O   0  0  0  0  0  0  0  0  0  0  0  0
    2.6030   -7.8690   -9.5520 C   0  0  0  0  0  0  0  0  0  0  0  0
    1.8130   -7.3790  -10.5540 C   0  0  0  0  0  3  0  0  0  0  0  0
    1.9330   -7.8660  -11.8370 C   0  0  0  0  0  3  0  0  0  0  0  0
    2.8380   -8.8630  -12.1190 C   0  0  0  0  0  3  0  0  0  0  0  0
    3.6520   -9.3450  -11.1150 C   0  0  0  0  0  3  0  0  0  0  0  0
    3.5480   -8.8440   -9.8270 C   0  0  0  0  0  3  0  0  0  0  0  0
    0.3750   -7.8010   -6.3900 O   0  0  0  0  0  0  0  0  0  0  0  0
   -0.0980   -7.1670   -5.7960 H   0  0  0  0  0  0  0  0  0  0  0  0
  1  8  1  0  0  0  0
  2  1  2  0  0  0  0
  3  2  1  0  0  0  0
  4  3  2  0  0  0  0
  4  5  1  0  0  0  0
  5  6  2  0  0  0  0
  6  1  1  0  0  0  0
  8  7  1  0  0  0  0
  9 10  2  0  0  0  0
  9  4  1  0  0  0  0
 11  9  1  0  0  0  0
 12 11  2  0  0  0  0
 13 12  1  0  0  0  0
 14 13  2  0  0  0  0
 14 15  1  0  0  0  0
 15 16  2  0  0  0  0
 16 11  1  0  0  0  0
 17  5  1  0  0  0  0
 17 18  1  0  0  0  0
M  END
>  <MODEL>
4

>  <REMARK>
 VINA RESULT:      -3.0     12.035     14.984
  Name = ox2_orig_f8_ligand
  5 active torsions:
  status: ('A' for Active; 'I' for Inactive)
    1  A    between atoms: C_1  and  O_2
    2  A    between atoms: O_2  and  C_3
    3  A    between atoms: C_6  and  C_7
    4  A    between atoms: C_7  and  C_9
    5  A    between atoms: C_15  and  O_16
                            x       y       z     vdW  Elec       q    Type
                         _______ _______ _______ _____ _____    ______ ____

>  <TORSDO>
F 4

$$$$
ox2_orig_f8_ligand
 OpenBabel10092621213D

 18 19  0  0  0  0  0  0  0  0999 V2000
   -3.8300   -2.4420    2.9790 C   0  0  0  0  0  0  0  0  0  0  0  0
   -3.3580   -3.4960    3.7320 C   0  0  0  0  0  3  0  0  0  0  0  0
   -2.1650   -3.3880    4.4110 C   0  0  0  0  0  3  0  0  0  0  0  0
   -1.4310   -2.2300    4.3300 C   0  0  0  0  0  0  0  0  0  0  0  0
   -1.9080   -1.1530    3.5850 C   0  0  0  0  0  0  0  0  0  0  0  0
   -3.1050   -1.2730    2.9150 C   0  0  0  0  0  3  0  0  0  0  0  0
   -5.2070   -3.7610    1.5440 C   0  0  0  0  0  1  0  0  0  0  0  0
   -5.0140   -2.6240    2.3350 O   0  0  0  0  0  0  0  0  0  0  0  0
   -0.1640   -2.1410    5.0640 C   0  0  0  0  0  0  0  0  0  0  0  0
    0.7590   -2.1750    4.4520 O   0  0  0  0  0  0  0  0  0  0  0  0
    0.0590   -1.8640    6.4610 C   0  0  0  0  0  0  0  0  0  0  0  0
   -0.2090   -0.6230    6.9700 C   0  0  0  0  0  3  0  0  0  0  0  0
   -0.0070   -0.3610    8.3070 C   0  0  0  0  0  3  0  0  0  0  0  0
    0.4830   -1.3380    9.1400 C   0  0  0  0  0  3  0  0  0  0  0  0
    0.7350   -2.5970    8.6350 C   0  0  0  0  0  3  0  0  0  0  0  0
    0.5140   -2.8720    7.2940 C   0  0  0  0  0  3  0  0  0  0  0  0
   -1.2040   -0.0120    3.5300 O   0  0  0  0  0  0  0  0  0  0  0  0
   -0.4360    0.1260    4.1400 H   0  0  0  0  0  0  0  0  0  0  0  0
  1  2  1  0  0  0  0
  2  3  2  0  0  0  0
  4  3  1  0  0  0  0
  4  9  1  0  0  0  0
  5  4  2  0  0  0  0
  6  1  2  0  0  0  0
  6  5  1  0  0  0  0
  7  8  1  0  0  0  0
  8  1  1  0  0  0  0
  9 11  1  0  0  0  0
 10  9  2  0  0  0  0
 11 12  2  0  0  0  0
 11 16  1  0  0  0  0
 12 13  1  0  0  0  0
 13 14  2  0  0  0  0
 15 14  1  0  0  0  0
 16 15  2  0  0  0  0
 17  5  1  0  0  0  0
 17 18  1  0  0  0  0
M  END
>  <MODEL>
5

>  <REMARK>
 VINA RESULT:      -3.0      2.773      5.312
  Name = ox2_orig_f8_ligand
  5 active torsions:
  status: ('A' for Active; 'I' for Inactive)
    1  A    between atoms: C_1  and  O_2
    2  A    between atoms: O_2  and  C_3
    3  A    between atoms: C_6  and  C_7
    4  A    between atoms: C_7  and  C_9
    5  A    between atoms: C_15  and  O_16
                            x       y       z     vdW  Elec       q    Type
                         _______ _______ _______ _____ _____    ______ ____

>  <TORSDO>
F 4

$$$$
ox2_orig_f8_ligand
 OpenBabel10092621213D

 18 19  0  0  0  0  0  0  0  0999 V2000
    2.5510    2.3960   -2.3190 C   0  0  0  0  0  0  0  0  0  0  0  0
    1.6080    3.3980   -2.2260 C   0  0  0  0  0  3  0  0  0  0  0  0
    0.3620    3.2360   -2.7890 C   0  0  0  0  0  3  0  0  0  0  0  0
    0.0560    2.0760   -3.4580 C   0  0  0  0  0  0  0  0  0  0  0  0
    0.9970    1.0510   -3.5430 C   0  0  0  0  0  0  0  0  0  0  0  0
    2.2380    1.2240   -2.9720 C   0  0  0  0  0  3  0  0  0  0  0  0
    4.1060    3.9290   -1.3560 C   0  0  0  0  0  1  0  0  0  0  0  0
    3.7600    2.6300   -1.7420 O   0  0  0  0  0  0  0  0  0  0  0  0
   -1.2790    1.9280   -4.0460 C   0  0  0  0  0  0  0  0  0  0  0  0
   -1.3320    1.9640   -5.1530 O   0  0  0  0  0  0  0  0  0  0  0  0
   -2.5240    1.5910   -3.4020 C   0  0  0  0  0  0  0  0  0  0  0  0
   -3.3580    2.5780   -2.9550 C   0  0  0  0  0  3  0  0  0  0  0  0
   -4.5530    2.2580   -2.3490 C   0  0  0  0  0  3  0  0  0  0  0  0
   -4.9110    0.9420   -2.1720 C   0  0  0  0  0  3  0  0  0  0  0  0
   -4.0820   -0.0560   -2.6400 C   0  0  0  0  0  3  0  0  0  0  0  0
   -2.8880    0.2620   -3.2690 C   0  0  0  0  0  3  0  0  0  0  0  0
    0.6880   -0.0930   -4.1720 O   0  0  0  0  0  0  0  0  0  0  0  0
    1.2950   -0.4570   -4.8640 H   0  0  0  0  0  0  0  0  0  0  0  0
  1  2  1  0  0  0  0
  1  8  1  0  0  0  0
  3  2  2  0  0  0  0
  4  3  1  0  0  0  0
  5  4  2  0  0  0  0
  5  6  1  0  0  0  0
  6  1  2  0  0  0  0
  8  7  1  0  0  0  0
  9  4  1  0  0  0  0
  9 11  1  0  0  0  0
 10  9  2  0  0  0  0
 11 16  2  0  0  0  0
 11 12  1  0  0  0  0
 12 13  2  0  0  0  0
 13 14  1  0  0  0  0
 15 14  2  0  0  0  0
 16 15  1  0  0  0  0
 17  5  1  0  0  0  0
 18 17  1  0  0  0  0
M  END
>  <MODEL>
6

>  <REMARK>
 VINA RESULT:      -3.0      9.685     10.637
  Name = ox2_orig_f8_ligand
  5 active torsions:
  status: ('A' for Active; 'I' for Inactive)
    1  A    between atoms: C_1  and  O_2
    2  A    between atoms: O_2  and  C_3
    3  A    between atoms: C_6  and  C_7
    4  A    between atoms: C_7  and  C_9
    5  A    between atoms: C_15  and  O_16
                            x       y       z     vdW  Elec       q    Type
                         _______ _______ _______ _____ _____    ______ ____

>  <TORSDO>
F 4

$$$$
ox2_orig_f8_ligand
 OpenBabel10092621213D

 18 19  0  0  0  0  0  0  0  0999 V2000
    0.0610   -1.1450    7.2570 C   0  0  0  0  0  0  0  0  0  0  0  0
   -0.5380    0.0250    7.6760 C   0  0  0  0  0  3  0  0  0  0  0  0
   -1.1830    0.8390    6.7730 C   0  0  0  0  0  3  0  0  0  0  0  0
   -1.2230    0.4950    5.4440 C   0  0  0  0  0  0  0  0  0  0  0  0
   -0.6360   -0.6940    5.0140 C   0  0  0  0  0  0  0  0  0  0  0  0
    0.0040   -1.5010    5.9280 C   0  0  0  0  0  3  0  0  0  0  0  0
    0.3430   -3.2440    8.3570 C   0  0  0  0  0  1  0  0  0  0  0  0
    0.6820   -1.8960    8.2060 O   0  0  0  0  0  0  0  0  0  0  0  0
   -1.9200    1.3780    4.5040 C   0  0  0  0  0  0  0  0  0  0  0  0
   -2.5900    0.8820    3.7730 O   0  0  0  0  0  0  0  0  0  0  0  0
   -1.9780    2.8190    4.4820 C   0  0  0  0  0  0  0  0  0  0  0  0
   -3.1710    3.4630    4.6620 C   0  0  0  0  0  3  0  0  0  0  0  0
   -3.2260    4.8390    4.6530 C   0  0  0  0  0  3  0  0  0  0  0  0
   -2.0860    5.5790    4.4460 C   0  0  0  0  0  3  0  0  0  0  0  0
   -0.8770    4.9330    4.2850 C   0  0  0  0  0  3  0  0  0  0  0  0
   -0.8130    3.5480    4.3140 C   0  0  0  0  0  3  0  0  0  0  0  0
   -0.7000   -1.0440    3.7200 O   0  0  0  0  0  0  0  0  0  0  0  0
    0.0900   -1.4400    3.2740 H   0  0  0  0  0  0  0  0  0  0  0  0
  1  2  1  0  0  0  0
  1  8  1  0  0  0  0
  3  2  2  0  0  0  0
  4  3  1  0  0  0  0
  5  4  2  0  0  0  0
  5  6  1  0  0  0  0
  6  1  2  0  0  0  0
  8  7  1  0  0  0  0
  9  4  1  0  0  0  0
 10  9  2  0  0  0  0
 11  9  1  0  0  0  0
 11 12  1  0  0  0  0
 13 12  2  0  0  0  0
 14 13  1  0  0  0  0
 15 16  1  0  0  0  0
 15 14  2  0  0  0  0
 16 11  2  0  0  0  0
 17  5  1  0  0  0  0
 18 17  1  0  0  0  0
M  END
>  <MODEL>
7

>  <REMARK>
 VINA RESULT:      -3.0      3.064      6.617
  Name = ox2_orig_f8_ligand
  5 active torsions:
  status: ('A' for Active; 'I' for Inactive)
    1  A    between atoms: C_1  and  O_2
    2  A    between atoms: O_2  and  C_3
    3  A    between atoms: C_6  and  C_7
    4  A    between atoms: C_7  and  C_9
    5  A    between atoms: C_15  and  O_16
                            x       y       z     vdW  Elec       q    Type
                         _______ _______ _______ _____ _____    ______ ____

>  <TORSDO>
F 4

$$$$
ox2_orig_f8_ligand
 OpenBabel10092621213D

 18 19  0  0  0  0  0  0  0  0999 V2000
    7.8970    0.5340    6.3540 C   0  0  0  0  0  0  0  0  0  0  0  0
    8.2800   -0.7830    6.2090 C   0  0  0  0  0  3  0  0  0  0  0  0
    7.8870   -1.5050    5.1060 C   0  0  0  0  0  3  0  0  0  0  0  0
    7.0980   -0.9190    4.1460 C   0  0  0  0  0  0  0  0  0  0  0  0
    6.7200    0.4160    4.2750 C   0  0  0  0  0  0  0  0  0  0  0  0
    7.1230    1.1290    5.3820 C   0  0  0  0  0  3  0  0  0  0  0  0
    8.2720    0.5340    8.7110 C   0  0  0  0  0  1  0  0  0  0  0  0
    8.3210    1.1820    7.4720 O   0  0  0  0  0  0  0  0  0  0  0  0
    6.6960   -1.7100    2.9790 C   0  0  0  0  0  0  0  0  0  0  0  0
    7.2440   -1.5040    2.0370 O   0  0  0  0  0  0  0  0  0  0  0  0
    5.7890   -2.8290    2.9070 C   0  0  0  0  0  0  0  0  0  0  0  0
    6.1780   -4.0610    3.3540 C   0  0  0  0  0  3  0  0  0  0  0  0
    5.3090   -5.1280    3.2960 C   0  0  0  0  0  3  0  0  0  0  0  0
    4.0470   -4.9690    2.7730 C   0  0  0  0  0  3  0  0  0  0  0  0
    3.6440   -3.7230    2.3400 C   0  0  0  0  0  3  0  0  0  0  0  0
    4.5090   -2.6410    2.4150 C   0  0  0  0  0  3  0  0  0  0  0  0
    5.9730    0.9960    3.3230 O   0  0  0  0  0  0  0  0  0  0  0  0
    5.0270    1.2240    3.5060 H   0  0  0  0  0  0  0  0  0  0  0  0
  1  8  1  0  0  0  0
  2  1  1  0  0  0  0
  3  2  2  0  0  0  0
  4  5  2  0  0  0  0
  4  3  1  0  0  0  0
  5  6  1  0  0  0  0
  6  1  2  0  0  0  0
  8  7  1  0  0  0  0
  9  4  1  0  0  0  0
 10  9  2  0  0  0  0
 11  9  1  0  0  0  0
 11 12  1  0  0  0  0
 13 12  2  0  0  0  0
 14 13  1  0  0  0  0
 15 16  1  0  0  0  0
 15 14  2  0  0  0  0
 16 11  2  0  0  0  0
 17 18  1  0  0  0  0
 17  5  1  0  0  0  0
M  END
>  <MODEL>
8

>  <REMARK>
 VINA RESULT:      -2.9      5.855      6.782
  Name = ox2_orig_f8_ligand
  5 active torsions:
  status: ('A' for Active; 'I' for Inactive)
    1  A    between atoms: C_1  and  O_2
    2  A    between atoms: O_2  and  C_3
    3  A    between atoms: C_6  and  C_7
    4  A    between atoms: C_7  and  C_9
    5  A    between atoms: C_15  and  O_16
                            x       y       z     vdW  Elec       q    Type
                         _______ _______ _______ _____ _____    ______ ____

>  <TORSDO>
F 4

$$$$
ox2_orig_f8_ligand
 OpenBabel10092621213D

 18 19  0  0  0  0  0  0  0  0999 V2000
    1.7210   -4.6690    1.1620 C   0  0  0  0  0  0  0  0  0  0  0  0
    2.5920   -4.2050    2.1250 C   0  0  0  0  0  3  0  0  0  0  0  0
    2.1480   -3.9520    3.4030 C   0  0  0  0  0  3  0  0  0  0  0  0
    0.8270   -4.1490    3.7220 C   0  0  0  0  0  0  0  0  0  0  0  0
   -0.0580   -4.6330    2.7600 C   0  0  0  0  0  0  0  0  0  0  0  0
    0.4000   -4.8850    1.4860 C   0  0  0  0  0  3  0  0  0  0  0  0
    3.3480   -4.1690   -0.5110 C   0  0  0  0  0  1  0  0  0  0  0  0
    2.2320   -4.8920   -0.0790 O   0  0  0  0  0  0  0  0  0  0  0  0
    0.3800   -3.8740    5.0910 C   0  0  0  0  0  0  0  0  0  0  0  0
    0.3360   -4.7460    5.7750 O   0  0  0  0  0  0  0  0  0  0  0  0
    0.1280   -2.6050    5.7290 C   0  0  0  0  0  0  0  0  0  0  0  0
   -0.3360   -1.5470    4.9980 C   0  0  0  0  0  3  0  0  0  0  0  0
   -0.5870   -0.3370    5.6080 C   0  0  0  0  0  3  0  0  0  0  0  0
   -0.3560   -0.1770    6.9540 C   0  0  0  0  0  3  0  0  0  0  0  0
    0.0930   -1.2490    7.6980 C   0  0  0  0  0  3  0  0  0  0  0  0
    0.3270   -2.4740    7.0930 C   0  0  0  0  0  3  0  0  0  0  0  0
   -1.3430   -4.8520    3.0800 O   0  0  0  0  0  0  0  0  0  0  0  0
   -1.5700   -5.3220    3.9220 H   0  0  0  0  0  0  0  0  0  0  0  0
  1  6  2  0  0  0  0
  1  2  1  0  0  0  0
  2  3  2  0  0  0  0
  3  4  1  0  0  0  0
  4  9  1  0  0  0  0
  5 17  1  0  0  0  0
  5  4  2  0  0  0  0
  6  5  1  0  0  0  0
  7  8  1  0  0  0  0
  8  1  1  0  0  0  0
  9 11  1  0  0  0  0
  9 10  2  0  0  0  0
 11 16  1  0  0  0  0
 12 13  1  0  0  0  0
 12 11  2  0  0  0  0
 13 14  2  0  0  0  0
 14 15  1  0  0  0  0
 16 15  2  0  0  0  0
 17 18  1  0  0  0  0
M  END
>  <MODEL>
9

>  <REMARK>
 VINA RESULT:      -2.8      2.237      6.037
  Name = ox2_orig_f8_ligand
  5 active torsions:
  status: ('A' for Active; 'I' for Inactive)
    1  A    between atoms: C_1  and  O_2
    2  A    between atoms: O_2  and  C_3
    3  A    between atoms: C_6  and  C_7
    4  A    between atoms: C_7  and  C_9
    5  A    between atoms: C_15  and  O_16
                            x       y       z     vdW  Elec       q    Type
                         _______ _______ _______ _____ _____    ______ ____

>  <TORSDO>
F 4

$$$$
