ox1_esm1_f8_dockpose1
     RDKit          3D

 17 18  0  0  0  0  0  0  0  0999 V2000
    4.2070   -4.4560    2.8660 C   0  0  0  0  0  0  0  0  0  0  0  0
    4.0500   -3.0350    2.9150 O   0  0  0  0  0  0  0  0  0  0  0  0
    4.1950   -2.2720    1.7930 C   0  0  0  0  0  0  0  0  0  0  0  0
    4.0290   -2.8900    0.5540 C   0  0  0  0  0  0  0  0  0  0  0  0
    4.1760   -2.1590   -0.6160 C   0  0  0  0  0  0  0  0  0  0  0  0
    4.4990   -0.8140   -0.5760 C   0  0  0  0  0  0  0  0  0  0  0  0
    4.6710   -0.0360   -1.8460 C   0  0  0  0  0  0  0  0  0  0  0  0
    5.7440    0.5170   -2.0730 O   0  0  0  0  0  0  0  0  0  0  0  0
    3.5480    0.0960   -2.8220 C   0  0  0  0  0  0  0  0  0  0  0  0
    2.6100   -0.8640   -2.9330 C   0  0  0  0  0  0  0  0  0  0  0  0
    1.5240   -0.7940   -3.7880 C   0  0  0  0  0  0  0  0  0  0  0  0
    1.4010    0.3000   -4.6090 C   0  0  0  0  0  0  0  0  0  0  0  0
    2.3540    1.3060   -4.5360 C   0  0  0  0  0  0  0  0  0  0  0  0
    3.4210    1.1920   -3.6460 C   0  0  0  0  0  0  0  0  0  0  0  0
    4.6620   -0.1790    0.6720 C   0  0  0  0  0  0  0  0  0  0  0  0
    4.9630    1.1520    0.7140 O   0  0  0  0  0  0  0  0  0  0  0  0
    4.5060   -0.9230    1.8400 C   0  0  0  0  0  0  0  0  0  0  0  0
  2  1  1  0
  3  2  1  0
  4  3  1  0
  5  4  2  0
  6  5  1  0
  7  6  1  0
  8  7  2  0
  9  7  1  0
 10  9  2  0
 11 10  1  0
 12 11  2  0
 13 12  1  0
 14 13  2  0
 14  9  1  0
 15  6  2  0
 16 15  1  0
 17 15  1  0
 17  3  2  0
M  END
