shuffle_control_ligand
 OpenBabel10092621103D

 20 20  0  0  1  0  0  0  0  0999 V2000
  -11.1460   -3.3590   -2.9630 C   0  0  0  0  0  0  0  0  0  0  0  0
  -12.0680   -3.0770   -2.2440 O   0  0  0  0  0  0  0  0  0  0  0  0
  -11.0570   -4.6080   -3.7570 C   0  0  0  0  0  3  0  0  0  0  0  0
   -9.9160   -4.9530   -4.3610 C   0  0  0  0  0  3  0  0  0  0  0  0
   -9.7550   -6.1680   -5.1950 C   0  0  0  0  0  0  0  0  0  0  0  0
  -10.4620   -7.3190   -4.9620 C   0  0  0  0  0  3  0  0  0  0  0  0
  -10.2820   -8.4360   -5.7700 C   0  0  0  0  0  3  0  0  0  0  0  0
   -9.3920   -8.4050   -6.8110 C   0  0  0  0  0  0  0  0  0  0  0  0
   -8.6790   -7.2550   -7.0480 C   0  0  0  0  0  3  0  0  0  0  0  0
   -8.8570   -6.1390   -6.2400 C   0  0  0  0  0  3  0  0  0  0  0  0
   -9.1750   -9.4640   -7.6420 O   0  0  0  0  0  0  0  0  0  0  0  0
   -8.5290   -9.2700   -8.8860 C   0  0  0  0  0  1  0  0  0  0  0  0
  -10.0950   -2.5460   -3.1110 O   0  0  0  0  0  0  0  0  0  0  0  0
  -10.2780   -1.2140   -3.5430 C   0  0  1  0  0  3  0  0  0  0  0  0
   -9.0500   -0.3850   -3.2030 C   0  0  0  0  0  2  0  0  0  0  0  0
   -8.0370   -1.0750   -2.3540 C   0  0  0  0  0  1  0  0  0  0  0  0
  -10.4710   -1.2160   -5.0420 C   0  0  0  0  0  2  0  0  0  0  0  0
   -9.2210   -0.9470   -5.8150 C   0  0  0  0  0  2  0  0  0  0  0  0
   -7.3680   -2.6170   -5.7780 C   0  0  0  0  0  1  0  0  0  0  0  0
   -8.6540   -2.1990   -6.4330 C   0  0  0  0  0  2  0  0  0  0  0  0
  1  2  2  0  0  0  0
  3  1  1  0  0  0  0
  4  3  2  0  0  0  0
  5  6  1  0  0  0  0
  5  4  1  0  0  0  0
  7  6  2  0  0  0  0
  8  7  1  0  0  0  0
  9  8  2  0  0  0  0
  9 10  1  0  0  0  0
 10  5  2  0  0  0  0
 11  8  1  0  0  0  0
 12 11  1  0  0  0  0
 13  1  1  0  0  0  0
 14 17  1  6  0  0  0
 14 15  1  0  0  0  0
 14 13  1  0  0  0  0
 15 16  1  0  0  0  0
 18 17  1  0  0  0  0
 20 18  1  0  0  0  0
 20 19  1  0  0  0  0
M  END
>  <MODEL>
1

>  <REMARK>
 VINA RESULT:      -2.9      0.000      0.000
  Name = shuffle_control_ligand
  12 active torsions:
  status: ('A' for Active; 'I' for Inactive)
    1  A    between atoms: C_1  and  C_2
    2  A    between atoms: C_2  and  C_3
    3  A    between atoms: C_3  and  C_4
    4  A    between atoms: C_4  and  C_5
    5  A    between atoms: C_5  and  C_6
    6  A    between atoms: C_5  and  O_8
    7  A    between atoms: C_6  and  C_7
    8  A    between atoms: O_8  and  C_9
    9  A    between atoms: C_9  and  C_11
   10  A    between atoms: C_12  and  C_13
   11  A    between atoms: C_16  and  O_17
   12  A    between atoms: O_17  and  C_18
                            x       y       z     vdW  Elec       q    Type
                         _______ _______ _______ _____ _____    ______ ____

>  <TORSDO>
F 9

$$$$
shuffle_control_ligand
 OpenBabel10092621103D

 20 20  0  0  1  0  0  0  0  0999 V2000
  -10.6090   -6.0930   -3.4920 C   0  0  0  0  0  0  0  0  0  0  0  0
  -11.6510   -5.8550   -2.9420 O   0  0  0  0  0  0  0  0  0  0  0  0
   -9.9270   -5.1700   -4.4310 C   0  0  0  0  0  3  0  0  0  0  0  0
  -10.0430   -3.8460   -4.2930 C   0  0  0  0  0  3  0  0  0  0  0  0
   -9.4180   -2.8600   -5.2050 C   0  0  0  0  0  0  0  0  0  0  0  0
   -9.8380   -1.5580   -5.2820 C   0  0  0  0  0  3  0  0  0  0  0  0
   -9.2220   -0.6640   -6.1510 C   0  0  0  0  0  3  0  0  0  0  0  0
   -8.1850   -1.0740   -6.9480 C   0  0  0  0  0  0  0  0  0  0  0  0
   -7.7610   -2.3780   -6.8770 C   0  0  0  0  0  3  0  0  0  0  0  0
   -8.3780   -3.2720   -6.0100 C   0  0  0  0  0  3  0  0  0  0  0  0
   -7.5360   -0.2450   -7.8160 O   0  0  0  0  0  0  0  0  0  0  0  0
   -6.2230   -0.5530   -8.2430 C   0  0  0  0  0  1  0  0  0  0  0  0
   -9.9580   -7.2450   -3.2970 O   0  0  0  0  0  0  0  0  0  0  0  0
   -8.9270   -7.6410   -4.1780 C   0  0  1  0  0  3  0  0  0  0  0  0
   -7.7120   -8.0950   -3.3860 C   0  0  0  0  0  2  0  0  0  0  0  0
   -6.4180   -8.0380   -4.1250 C   0  0  0  0  0  1  0  0  0  0  0  0
   -9.4280   -8.7940   -5.0180 C   0  0  0  0  0  2  0  0  0  0  0  0
   -9.8470   -8.4020   -6.3980 C   0  0  0  0  0  2  0  0  0  0  0  0
   -7.7080   -8.3710   -7.6820 C   0  0  0  0  0  1  0  0  0  0  0  0
   -8.8130   -7.5460   -7.0840 C   0  0  0  0  0  2  0  0  0  0  0  0
  1 13  1  0  0  0  0
  1  2  2  0  0  0  0
  3  4  2  0  0  0  0
  3  1  1  0  0  0  0
  5  4  1  0  0  0  0
  6  5  1  0  0  0  0
  7  6  2  0  0  0  0
  8  9  2  0  0  0  0
  8  7  1  0  0  0  0
  9 10  1  0  0  0  0
 10  5  2  0  0  0  0
 11  8  1  0  0  0  0
 12 11  1  0  0  0  0
 14 17  1  1  0  0  0
 14 15  1  0  0  0  0
 14 13  1  0  0  0  0
 16 15  1  0  0  0  0
 18 17  1  0  0  0  0
 19 20  1  0  0  0  0
 20 18  1  0  0  0  0
M  END
>  <MODEL>
2

>  <REMARK>
 VINA RESULT:      -2.9      2.446      6.107
  Name = shuffle_control_ligand
  12 active torsions:
  status: ('A' for Active; 'I' for Inactive)
    1  A    between atoms: C_1  and  C_2
    2  A    between atoms: C_2  and  C_3
    3  A    between atoms: C_3  and  C_4
    4  A    between atoms: C_4  and  C_5
    5  A    between atoms: C_5  and  C_6
    6  A    between atoms: C_5  and  O_8
    7  A    between atoms: C_6  and  C_7
    8  A    between atoms: O_8  and  C_9
    9  A    between atoms: C_9  and  C_11
   10  A    between atoms: C_12  and  C_13
   11  A    between atoms: C_16  and  O_17
   12  A    between atoms: O_17  and  C_18
                            x       y       z     vdW  Elec       q    Type
                         _______ _______ _______ _____ _____    ______ ____

>  <TORSDO>
F 9

$$$$
shuffle_control_ligand
 OpenBabel10092621103D

 20 20  0  0  1  0  0  0  0  0999 V2000
   -7.0730   -1.6730   -5.5680 C   0  0  0  0  0  0  0  0  0  0  0  0
   -7.1260   -1.1250   -6.6370 O   0  0  0  0  0  0  0  0  0  0  0  0
   -7.4470   -3.0890   -5.3340 C   0  0  0  0  0  3  0  0  0  0  0  0
   -8.5440   -3.6080   -5.8930 C   0  0  0  0  0  3  0  0  0  0  0  0
   -8.9990   -5.0030   -5.6840 C   0  0  0  0  0  0  0  0  0  0  0  0
   -9.7050   -5.3880   -4.5740 C   0  0  0  0  0  3  0  0  0  0  0  0
  -10.1150   -6.7080   -4.4190 C   0  0  0  0  0  3  0  0  0  0  0  0
   -9.8160   -7.6450   -5.3730 C   0  0  0  0  0  0  0  0  0  0  0  0
   -9.1080   -7.2650   -6.4860 C   0  0  0  0  0  3  0  0  0  0  0  0
   -8.6960   -5.9470   -6.6420 C   0  0  0  0  0  3  0  0  0  0  0  0
  -10.1940   -8.9530   -5.2820 O   0  0  0  0  0  0  0  0  0  0  0  0
  -11.3290   -9.4140   -5.9900 C   0  0  0  0  0  1  0  0  0  0  0  0
   -6.6610   -1.0330   -4.4690 O   0  0  0  0  0  0  0  0  0  0  0  0
   -7.1890   -1.3730   -3.2040 C   0  0  1  0  0  3  0  0  0  0  0  0
   -6.2020   -0.9990   -2.1110 C   0  0  0  0  0  2  0  0  0  0  0  0
   -6.5000   -1.5720   -0.7670 C   0  0  0  0  0  1  0  0  0  0  0  0
   -8.4720   -0.6020   -2.9950 C   0  0  0  0  0  2  0  0  0  0  0  0
   -9.6970   -1.4580   -2.9710 C   0  0  0  0  0  2  0  0  0  0  0  0
  -11.6660   -2.2230   -4.2990 C   0  0  0  0  0  1  0  0  0  0  0  0
  -10.6270   -1.1520   -4.1160 C   0  0  0  0  0  2  0  0  0  0  0  0
  1  3  1  0  0  0  0
  1 13  1  0  0  0  0
  2  1  2  0  0  0  0
  4  5  1  0  0  0  0
  4  3  2  0  0  0  0
  5  6  1  0  0  0  0
  6  7  2  0  0  0  0
  8 11  1  0  0  0  0
  8  7  1  0  0  0  0
  9  8  2  0  0  0  0
 10  9  1  0  0  0  0
 10  5  2  0  0  0  0
 12 11  1  0  0  0  0
 13 14  1  0  0  0  0
 14 17  1  1  0  0  0
 14 15  1  0  0  0  0
 15 16  1  0  0  0  0
 17 18  1  0  0  0  0
 19 20  1  0  0  0  0
 20 18  1  0  0  0  0
M  END
>  <MODEL>
3

>  <REMARK>
 VINA RESULT:      -2.8      2.158      3.350
  Name = shuffle_control_ligand
  12 active torsions:
  status: ('A' for Active; 'I' for Inactive)
    1  A    between atoms: C_1  and  C_2
    2  A    between atoms: C_2  and  C_3
    3  A    between atoms: C_3  and  C_4
    4  A    between atoms: C_4  and  C_5
    5  A    between atoms: C_5  and  C_6
    6  A    between atoms: C_5  and  O_8
    7  A    between atoms: C_6  and  C_7
    8  A    between atoms: O_8  and  C_9
    9  A    between atoms: C_9  and  C_11
   10  A    between atoms: C_12  and  C_13
   11  A    between atoms: C_16  and  O_17
   12  A    between atoms: O_17  and  C_18
                            x       y       z     vdW  Elec       q    Type
                         _______ _______ _______ _____ _____    ______ ____

>  <TORSDO>
F 9

$$$$
shuffle_control_ligand
 OpenBabel10092621103D

 20 20  0  0  1  0  0  0  0  0999 V2000
   -7.0140   -1.6630   -5.6550 C   0  0  0  0  0  0  0  0  0  0  0  0
   -6.6800   -0.7070   -5.0050 O   0  0  0  0  0  0  0  0  0  0  0  0
   -7.7480   -2.8300   -5.1100 C   0  0  0  0  0  3  0  0  0  0  0  0
   -8.3300   -3.7140   -5.9260 C   0  0  0  0  0  3  0  0  0  0  0  0
   -9.1040   -4.8880   -5.4590 C   0  0  0  0  0  0  0  0  0  0  0  0
   -8.9430   -6.1380   -5.9970 C   0  0  0  0  0  3  0  0  0  0  0  0
   -9.6890   -7.2130   -5.5270 C   0  0  0  0  0  3  0  0  0  0  0  0
  -10.6010   -7.0380   -4.5200 C   0  0  0  0  0  0  0  0  0  0  0  0
  -10.7690   -5.7880   -3.9780 C   0  0  0  0  0  3  0  0  0  0  0  0
  -10.0250   -4.7120   -4.4480 C   0  0  0  0  0  3  0  0  0  0  0  0
  -11.3580   -8.0530   -4.0120 O   0  0  0  0  0  0  0  0  0  0  0  0
  -10.7340   -9.1610   -3.3930 C   0  0  0  0  0  1  0  0  0  0  0  0
   -6.7430   -1.7550   -6.9610 O   0  0  0  0  0  0  0  0  0  0  0  0
   -7.1520   -0.7350   -7.8480 C   0  0  1  0  0  3  0  0  0  0  0  0
   -6.0330   -0.4180   -8.8270 C   0  0  0  0  0  2  0  0  0  0  0  0
   -4.6540   -0.5610   -8.2780 C   0  0  0  0  0  1  0  0  0  0  0  0
   -8.3580   -1.2230   -8.6190 C   0  0  0  0  0  2  0  0  0  0  0  0
   -9.5210   -0.2850   -8.5810 C   0  0  0  0  0  2  0  0  0  0  0  0
  -10.4980   -0.4710   -6.2930 C   0  0  0  0  0  1  0  0  0  0  0  0
   -9.6800    0.3690   -7.2330 C   0  0  0  0  0  2  0  0  0  0  0  0
  1  3  1  0  0  0  0
  1  2  2  0  0  0  0
  4  5  1  0  0  0  0
  4  3  2  0  0  0  0
  5 10  1  0  0  0  0
  6  7  1  0  0  0  0
  6  5  2  0  0  0  0
  7  8  2  0  0  0  0
  8 11  1  0  0  0  0
  8  9  1  0  0  0  0
 10  9  2  0  0  0  0
 11 12  1  0  0  0  0
 13  1  1  0  0  0  0
 14 15  1  6  0  0  0
 14 13  1  0  0  0  0
 15 16  1  0  0  0  0
 17 18  1  0  0  0  0
 17 14  1  0  0  0  0
 18 20  1  0  0  0  0
 20 19  1  0  0  0  0
M  END
>  <MODEL>
4

>  <REMARK>
 VINA RESULT:      -2.7      2.644      4.347
  Name = shuffle_control_ligand
  12 active torsions:
  status: ('A' for Active; 'I' for Inactive)
    1  A    between atoms: C_1  and  C_2
    2  A    between atoms: C_2  and  C_3
    3  A    between atoms: C_3  and  C_4
    4  A    between atoms: C_4  and  C_5
    5  A    between atoms: C_5  and  C_6
    6  A    between atoms: C_5  and  O_8
    7  A    between atoms: C_6  and  C_7
    8  A    between atoms: O_8  and  C_9
    9  A    between atoms: C_9  and  C_11
   10  A    between atoms: C_12  and  C_13
   11  A    between atoms: C_16  and  O_17
   12  A    between atoms: O_17  and  C_18
                            x       y       z     vdW  Elec       q    Type
                         _______ _______ _______ _____ _____    ______ ____

>  <TORSDO>
F 9

$$$$
shuffle_control_ligand
 OpenBabel10092621103D

 20 20  0  0  1  0  0  0  0  0999 V2000
   -7.5910   -1.9940   -6.5920 C   0  0  0  0  0  0  0  0  0  0  0  0
   -6.4210   -1.7510   -6.7150 O   0  0  0  0  0  0  0  0  0  0  0  0
   -8.1740   -3.3560   -6.6560 C   0  0  0  0  0  3  0  0  0  0  0  0
   -8.5160   -4.0070   -5.5400 C   0  0  0  0  0  3  0  0  0  0  0  0
   -9.0760   -5.3790   -5.5200 C   0  0  0  0  0  0  0  0  0  0  0  0
   -8.7740   -6.3110   -6.4780 C   0  0  0  0  0  3  0  0  0  0  0  0
   -9.3200   -7.5890   -6.4210 C   0  0  0  0  0  3  0  0  0  0  0  0
  -10.1730   -7.9340   -5.4050 C   0  0  0  0  0  0  0  0  0  0  0  0
  -10.4810   -7.0040   -4.4440 C   0  0  0  0  0  3  0  0  0  0  0  0
   -9.9370   -5.7260   -4.5010 C   0  0  0  0  0  3  0  0  0  0  0  0
  -10.7360   -9.1720   -5.2900 O   0  0  0  0  0  0  0  0  0  0  0  0
  -11.5710   -9.6690   -6.3170 C   0  0  0  0  0  1  0  0  0  0  0  0
   -8.4920   -1.0290   -6.3800 O   0  0  0  0  0  0  0  0  0  0  0  0
   -8.3970   -0.2000   -5.2410 C   0  0  1  0  0  3  0  0  0  0  0  0
   -8.6870    1.2430   -5.6220 C   0  0  0  0  0  2  0  0  0  0  0  0
   -8.8040    1.4970   -7.0870 C   0  0  0  0  0  1  0  0  0  0  0  0
   -9.4190   -0.6570   -4.2260 C   0  0  0  0  0  2  0  0  0  0  0  0
  -10.8070   -0.7640   -4.7700 C   0  0  0  0  0  2  0  0  0  0  0  0
  -11.2550   -2.5600   -3.0980 C   0  0  0  0  0  1  0  0  0  0  0  0
  -11.4090   -2.1230   -4.5280 C   0  0  0  0  0  2  0  0  0  0  0  0
  1 13  1  0  0  0  0
  2  1  2  0  0  0  0
  3  1  1  0  0  0  0
  3  4  2  0  0  0  0
  4  5  1  0  0  0  0
  5 10  1  0  0  0  0
  6  7  1  0  0  0  0
  6  5  2  0  0  0  0
  7  8  2  0  0  0  0
  8 11  1  0  0  0  0
  8  9  1  0  0  0  0
 10  9  2  0  0  0  0
 12 11  1  0  0  0  0
 13 14  1  0  0  0  0
 14 15  1  6  0  0  0
 14 17  1  0  0  0  0
 16 15  1  0  0  0  0
 18 20  1  0  0  0  0
 18 17  1  0  0  0  0
 20 19  1  0  0  0  0
M  END
>  <MODEL>
5

>  <REMARK>
 VINA RESULT:      -2.7      2.092      3.571
  Name = shuffle_control_ligand
  12 active torsions:
  status: ('A' for Active; 'I' for Inactive)
    1  A    between atoms: C_1  and  C_2
    2  A    between atoms: C_2  and  C_3
    3  A    between atoms: C_3  and  C_4
    4  A    between atoms: C_4  and  C_5
    5  A    between atoms: C_5  and  C_6
    6  A    between atoms: C_5  and  O_8
    7  A    between atoms: C_6  and  C_7
    8  A    between atoms: O_8  and  C_9
    9  A    between atoms: C_9  and  C_11
   10  A    between atoms: C_12  and  C_13
   11  A    between atoms: C_16  and  O_17
   12  A    between atoms: O_17  and  C_18
                            x       y       z     vdW  Elec       q    Type
                         _______ _______ _______ _____ _____    ______ ____

>  <TORSDO>
F 9

$$$$
shuffle_control_ligand
 OpenBabel10092621103D

 20 20  0  0  1  0  0  0  0  0999 V2000
  -10.4390   -0.5380   -4.4120 C   0  0  0  0  0  0  0  0  0  0  0  0
  -10.6130   -0.0170   -3.3430 O   0  0  0  0  0  0  0  0  0  0  0  0
  -10.6310   -1.9850   -4.6790 C   0  0  0  0  0  3  0  0  0  0  0  0
   -9.7020   -2.8750   -4.3190 C   0  0  0  0  0  3  0  0  0  0  0  0
   -9.8070   -4.3310   -4.5760 C   0  0  0  0  0  0  0  0  0  0  0  0
  -10.7510   -5.1190   -3.9710 C   0  0  0  0  0  3  0  0  0  0  0  0
  -10.8160   -6.4810   -4.2430 C   0  0  0  0  0  3  0  0  0  0  0  0
   -9.9340   -7.0580   -5.1190 C   0  0  0  0  0  0  0  0  0  0  0  0
   -8.9850   -6.2740   -5.7260 C   0  0  0  0  0  3  0  0  0  0  0  0
   -8.9180   -4.9130   -5.4540 C   0  0  0  0  0  3  0  0  0  0  0  0
   -9.9500   -8.3860   -5.4310 O   0  0  0  0  0  0  0  0  0  0  0  0
   -8.8530   -8.9690   -6.1060 C   0  0  0  0  0  1  0  0  0  0  0  0
  -10.0460    0.1620   -5.4810 O   0  0  0  0  0  0  0  0  0  0  0  0
  -10.1740   -0.3820   -6.7780 C   0  0  1  0  0  3  0  0  0  0  0  0
  -11.0650    0.5090   -7.6290 C   0  0  0  0  0  2  0  0  0  0  0  0
  -11.3530   -0.0090   -8.9970 C   0  0  0  0  0  1  0  0  0  0  0  0
   -8.8020   -0.4540   -7.4080 C   0  0  0  0  0  2  0  0  0  0  0  0
   -8.2130   -1.8280   -7.4220 C   0  0  0  0  0  2  0  0  0  0  0  0
   -6.7650   -0.9570   -5.5870 C   0  0  0  0  0  1  0  0  0  0  0  0
   -6.8520   -1.8690   -6.7790 C   0  0  0  0  0  2  0  0  0  0  0  0
  1  2  2  0  0  0  0
  3  1  1  0  0  0  0
  3  4  2  0  0  0  0
  5  4  1  0  0  0  0
  5  6  1  0  0  0  0
  7  6  2  0  0  0  0
  8  7  1  0  0  0  0
  9 10  1  0  0  0  0
  9  8  2  0  0  0  0
 10  5  2  0  0  0  0
 11  8  1  0  0  0  0
 12 11  1  0  0  0  0
 13  1  1  0  0  0  0
 14 15  1  6  0  0  0
 14 13  1  0  0  0  0
 16 15  1  0  0  0  0
 17 14  1  0  0  0  0
 18 17  1  0  0  0  0
 18 20  1  0  0  0  0
 20 19  1  0  0  0  0
M  END
>  <MODEL>
6

>  <REMARK>
 VINA RESULT:      -2.7      1.917      3.170
  Name = shuffle_control_ligand
  12 active torsions:
  status: ('A' for Active; 'I' for Inactive)
    1  A    between atoms: C_1  and  C_2
    2  A    between atoms: C_2  and  C_3
    3  A    between atoms: C_3  and  C_4
    4  A    between atoms: C_4  and  C_5
    5  A    between atoms: C_5  and  C_6
    6  A    between atoms: C_5  and  O_8
    7  A    between atoms: C_6  and  C_7
    8  A    between atoms: O_8  and  C_9
    9  A    between atoms: C_9  and  C_11
   10  A    between atoms: C_12  and  C_13
   11  A    between atoms: C_16  and  O_17
   12  A    between atoms: O_17  and  C_18
                            x       y       z     vdW  Elec       q    Type
                         _______ _______ _______ _____ _____    ______ ____

>  <TORSDO>
F 9

$$$$
shuffle_control_ligand
 OpenBabel10092621103D

 20 20  0  0  1  0  0  0  0  0999 V2000
   -9.4860   -6.4300   -4.8770 C   0  0  0  0  0  0  0  0  0  0  0  0
   -9.2050   -7.5290   -5.2750 O   0  0  0  0  0  0  0  0  0  0  0  0
   -9.0890   -5.1690   -5.5490 C   0  0  0  0  0  3  0  0  0  0  0  0
   -8.2580   -4.3100   -4.9540 C   0  0  0  0  0  3  0  0  0  0  0  0
   -7.8380   -3.0180   -5.5470 C   0  0  0  0  0  0  0  0  0  0  0  0
   -7.2330   -2.0320   -4.8110 C   0  0  0  0  0  3  0  0  0  0  0  0
   -6.8530   -0.8350   -5.4090 C   0  0  0  0  0  3  0  0  0  0  0  0
   -7.0810   -0.6210   -6.7430 C   0  0  0  0  0  0  0  0  0  0  0  0
   -7.6880   -1.6050   -7.4840 C   0  0  0  0  0  3  0  0  0  0  0  0
   -8.0700   -2.8010   -6.8880 C   0  0  0  0  0  3  0  0  0  0  0  0
   -6.7260    0.5270   -7.3880 O   0  0  0  0  0  0  0  0  0  0  0  0
   -7.5500    1.6740   -7.2980 C   0  0  0  0  0  1  0  0  0  0  0  0
  -10.2020   -6.2480   -3.7630 O   0  0  0  0  0  0  0  0  0  0  0  0
  -11.4120   -5.5210   -3.8020 C   0  0  1  0  0  3  0  0  0  0  0  0
  -12.5940   -6.4750   -3.7410 C   0  0  0  0  0  2  0  0  0  0  0  0
  -13.9050   -5.8820   -4.1330 C   0  0  0  0  0  1  0  0  0  0  0  0
  -11.4600   -4.5990   -2.6040 C   0  0  0  0  0  2  0  0  0  0  0  0
  -11.1110   -3.1800   -2.9170 C   0  0  0  0  0  2  0  0  0  0  0  0
  -11.0060   -1.4980   -4.7570 C   0  0  0  0  0  1  0  0  0  0  0  0
  -11.6910   -2.7290   -4.2320 C   0  0  0  0  0  2  0  0  0  0  0  0
  1 13  1  0  0  0  0
  2  1  2  0  0  0  0
  3  4  2  0  0  0  0
  3  1  1  0  0  0  0
  5  4  1  0  0  0  0
  5  6  1  0  0  0  0
  7  6  2  0  0  0  0
  8  7  1  0  0  0  0
  9 10  1  0  0  0  0
  9  8  2  0  0  0  0
 10  5  2  0  0  0  0
 11 12  1  0  0  0  0
 11  8  1  0  0  0  0
 14 13  1  0  0  0  0
 14 15  1  1  0  0  0
 14 17  1  0  0  0  0
 16 15  1  0  0  0  0
 18 17  1  0  0  0  0
 19 20  1  0  0  0  0
 20 18  1  0  0  0  0
M  END
>  <MODEL>
7

>  <REMARK>
 VINA RESULT:      -2.7      2.390      6.066
  Name = shuffle_control_ligand
  12 active torsions:
  status: ('A' for Active; 'I' for Inactive)
    1  A    between atoms: C_1  and  C_2
    2  A    between atoms: C_2  and  C_3
    3  A    between atoms: C_3  and  C_4
    4  A    between atoms: C_4  and  C_5
    5  A    between atoms: C_5  and  C_6
    6  A    between atoms: C_5  and  O_8
    7  A    between atoms: C_6  and  C_7
    8  A    between atoms: O_8  and  C_9
    9  A    between atoms: C_9  and  C_11
   10  A    between atoms: C_12  and  C_13
   11  A    between atoms: C_16  and  O_17
   12  A    between atoms: O_17  and  C_18
                            x       y       z     vdW  Elec       q    Type
                         _______ _______ _______ _____ _____    ______ ____

>  <TORSDO>
F 9

$$$$
shuffle_control_ligand
 OpenBabel10092621103D

 20 20  0  0  1  0  0  0  0  0999 V2000
   -8.6360   -7.9020   -5.9690 C   0  0  0  0  0  0  0  0  0  0  0  0
   -7.6280   -8.4160   -6.3750 O   0  0  0  0  0  0  0  0  0  0  0  0
   -8.9680   -6.4660   -6.1340 C   0  0  0  0  0  3  0  0  0  0  0  0
   -8.6770   -5.5820   -5.1740 C   0  0  0  0  0  3  0  0  0  0  0  0
   -9.0020   -4.1380   -5.2520 C   0  0  0  0  0  0  0  0  0  0  0  0
   -9.9650   -3.5580   -4.4690 C   0  0  0  0  0  3  0  0  0  0  0  0
  -10.2370   -2.1980   -4.5730 C   0  0  0  0  0  3  0  0  0  0  0  0
   -9.5470   -1.4170   -5.4630 C   0  0  0  0  0  0  0  0  0  0  0  0
   -8.5820   -1.9940   -6.2510 C   0  0  0  0  0  3  0  0  0  0  0  0
   -8.3110   -3.3530   -6.1500 C   0  0  0  0  0  3  0  0  0  0  0  0
   -9.7630   -0.0780   -5.6080 O   0  0  0  0  0  0  0  0  0  0  0  0
  -10.3770    0.4190   -6.7810 C   0  0  0  0  0  1  0  0  0  0  0  0
   -9.5700   -8.6010   -5.3160 O   0  0  0  0  0  0  0  0  0  0  0  0
  -10.9220   -8.5360   -5.7180 C   0  0  1  0  0  3  0  0  0  0  0  0
  -11.3080   -9.8100   -6.4520 C   0  0  0  0  0  2  0  0  0  0  0  0
  -12.3030   -9.6300   -7.5490 C   0  0  0  0  0  1  0  0  0  0  0  0
  -11.7850   -8.3980   -4.4840 C   0  0  0  0  0  2  0  0  0  0  0  0
  -12.1840   -6.9900   -4.1790 C   0  0  0  0  0  2  0  0  0  0  0  0
  -10.8190   -7.5300   -2.1630 C   0  0  0  0  0  1  0  0  0  0  0  0
  -11.4620   -6.4420   -2.9760 C   0  0  0  0  0  2  0  0  0  0  0  0
  1 13  1  0  0  0  0
  2  1  2  0  0  0  0
  3  1  1  0  0  0  0
  3  4  2  0  0  0  0
  5  4  1  0  0  0  0
  5  6  1  0  0  0  0
  7  6  2  0  0  0  0
  8  7  1  0  0  0  0
  9 10  1  0  0  0  0
  9  8  2  0  0  0  0
 10  5  2  0  0  0  0
 11  8  1  0  0  0  0
 12 11  1  0  0  0  0
 14 15  1  1  0  0  0
 14 13  1  0  0  0  0
 14 17  1  0  0  0  0
 16 15  1  0  0  0  0
 17 18  1  0  0  0  0
 18 20  1  0  0  0  0
 20 19  1  0  0  0  0
M  END
>  <MODEL>
8

>  <REMARK>
 VINA RESULT:      -2.7      2.146      6.965
  Name = shuffle_control_ligand
  12 active torsions:
  status: ('A' for Active; 'I' for Inactive)
    1  A    between atoms: C_1  and  C_2
    2  A    between atoms: C_2  and  C_3
    3  A    between atoms: C_3  and  C_4
    4  A    between atoms: C_4  and  C_5
    5  A    between atoms: C_5  and  C_6
    6  A    between atoms: C_5  and  O_8
    7  A    between atoms: C_6  and  C_7
    8  A    between atoms: O_8  and  C_9
    9  A    between atoms: C_9  and  C_11
   10  A    between atoms: C_12  and  C_13
   11  A    between atoms: C_16  and  O_17
   12  A    between atoms: O_17  and  C_18
                            x       y       z     vdW  Elec       q    Type
                         _______ _______ _______ _____ _____    ______ ____

>  <TORSDO>
F 9

$$$$
shuffle_control_ligand
 OpenBabel10092621103D

 20 20  0  0  1  0  0  0  0  0999 V2000
   -6.8670   -1.7550   -6.0720 C   0  0  0  0  0  0  0  0  0  0  0  0
   -6.2450   -0.9020   -5.4970 O   0  0  0  0  0  0  0  0  0  0  0  0
   -7.5550   -2.8850   -5.4020 C   0  0  0  0  0  3  0  0  0  0  0  0
   -8.3840   -3.6820   -6.0830 C   0  0  0  0  0  3  0  0  0  0  0  0
   -9.1280   -4.8120   -5.4790 C   0  0  0  0  0  0  0  0  0  0  0  0
   -9.0150   -6.0980   -5.9400 C   0  0  0  0  0  3  0  0  0  0  0  0
   -9.7310   -7.1290   -5.3420 C   0  0  0  0  0  3  0  0  0  0  0  0
  -10.5640   -6.8750   -4.2840 C   0  0  0  0  0  0  0  0  0  0  0  0
  -10.6830   -5.5890   -3.8200 C   0  0  0  0  0  3  0  0  0  0  0  0
   -9.9690   -4.5570   -4.4170 C   0  0  0  0  0  3  0  0  0  0  0  0
  -11.2870   -7.8440   -3.6520 O   0  0  0  0  0  0  0  0  0  0  0  0
  -12.5960   -8.1520   -4.0910 C   0  0  0  0  0  1  0  0  0  0  0  0
   -6.9960   -1.7550   -7.4030 O   0  0  0  0  0  0  0  0  0  0  0  0
   -7.5560   -0.6410   -8.0660 C   0  0  1  0  0  3  0  0  0  0  0  0
   -7.2580   -0.7190   -9.5550 C   0  0  0  0  0  2  0  0  0  0  0  0
   -8.3600   -1.2760  -10.3910 C   0  0  0  0  0  1  0  0  0  0  0  0
   -9.0540   -0.6600   -7.8610 C   0  0  0  0  0  2  0  0  0  0  0  0
   -9.5930    0.5750   -7.2150 C   0  0  0  0  0  2  0  0  0  0  0  0
  -10.7720   -0.8990   -5.5830 C   0  0  0  0  0  1  0  0  0  0  0  0
   -9.9550    0.3490   -5.7700 C   0  0  0  0  0  2  0  0  0  0  0  0
  1  2  2  0  0  0  0
  1  3  1  0  0  0  0
  4  5  1  0  0  0  0
  4  3  2  0  0  0  0
  5 10  1  0  0  0  0
  6  5  2  0  0  0  0
  6  7  1  0  0  0  0
  7  8  2  0  0  0  0
  8  9  1  0  0  0  0
  8 11  1  0  0  0  0
 10  9  2  0  0  0  0
 12 11  1  0  0  0  0
 13  1  1  0  0  0  0
 14 15  1  6  0  0  0
 14 17  1  0  0  0  0
 14 13  1  0  0  0  0
 16 15  1  0  0  0  0
 17 18  1  0  0  0  0
 18 20  1  0  0  0  0
 20 19  1  0  0  0  0
M  END
>  <MODEL>
9

>  <REMARK>
 VINA RESULT:      -2.7      2.622      4.555
  Name = shuffle_control_ligand
  12 active torsions:
  status: ('A' for Active; 'I' for Inactive)
    1  A    between atoms: C_1  and  C_2
    2  A    between atoms: C_2  and  C_3
    3  A    between atoms: C_3  and  C_4
    4  A    between atoms: C_4  and  C_5
    5  A    between atoms: C_5  and  C_6
    6  A    between atoms: C_5  and  O_8
    7  A    between atoms: C_6  and  C_7
    8  A    between atoms: O_8  and  C_9
    9  A    between atoms: C_9  and  C_11
   10  A    between atoms: C_12  and  C_13
   11  A    between atoms: C_16  and  O_17
   12  A    between atoms: O_17  and  C_18
                            x       y       z     vdW  Elec       q    Type
                         _______ _______ _______ _____ _____    ______ ____

>  <TORSDO>
F 9

$$$$
