bg33_4_ligand
     RDKit          3D

 44 44  0  0  0  0  0  0  0  0999 V2000
   -7.5580   -6.7677   -7.5882 C   0  0  0  0  0  0  0  0  0  0  0  0
   -8.7528   -5.9445   -7.9845 C   0  0  0  0  0  0  0  0  0  0  0  0
   -9.2156   -4.9790   -6.8958 C   0  0  0  0  0  0  0  0  0  0  0  0
  -10.5289   -4.3215   -7.2348 C   0  0  0  0  0  0  0  0  0  0  0  0
  -10.7648   -3.0406   -6.3076 C   0  0  1  0  0  0  0  0  0  0  0  0
  -12.2363   -2.8287   -5.8469 C   0  0  0  0  0  0  0  0  0  0  0  0
  -13.1091   -2.1921   -6.9769 C   0  0  0  0  0  0  0  0  0  0  0  0
  -10.1279   -3.2398   -5.0912 O   0  0  0  0  0  0  0  0  0  0  0  0
   -9.5026   -2.1020   -4.4114 C   0  0  0  0  0  0  0  0  0  0  0  0
   -9.8046   -0.9151   -4.7408 O   0  0  0  0  0  0  0  0  0  0  0  0
   -8.6461   -2.4281   -3.2602 C   0  0  0  0  0  0  0  0  0  0  0  0
   -8.2194   -3.7885   -3.1012 C   0  0  0  0  0  0  0  0  0  0  0  0
   -7.4224   -4.2181   -1.8797 C   0  0  0  0  0  0  0  0  0  0  0  0
   -6.5541   -3.3723   -1.2231 C   0  0  0  0  0  0  0  0  0  0  0  0
   -5.8176   -3.8067   -0.0677 C   0  0  0  0  0  0  0  0  0  0  0  0
   -5.9610   -5.1018    0.4610 C   0  0  0  0  0  0  0  0  0  0  0  0
   -5.3252   -5.5563    1.5993 O   0  0  0  0  0  0  0  0  0  0  0  0
   -4.4881   -4.6341    2.3418 C   0  0  0  0  0  0  0  0  0  0  0  0
   -6.8569   -5.9301   -0.2108 C   0  0  0  0  0  0  0  0  0  0  0  0
   -7.5766   -5.4999   -1.3334 C   0  0  0  0  0  0  0  0  0  0  0  0
   -6.7783   -6.6768   -8.3588 H   0  0  0  0  0  0  0  0  0  0  0  0
   -7.1665   -6.4062   -6.6259 H   0  0  0  0  0  0  0  0  0  0  0  0
   -7.8555   -7.8222   -7.4901 H   0  0  0  0  0  0  0  0  0  0  0  0
   -8.4919   -5.3607   -8.8796 H   0  0  0  0  0  0  0  0  0  0  0  0
   -9.5810   -6.6444   -8.1697 H   0  0  0  0  0  0  0  0  0  0  0  0
   -9.3317   -5.5365   -5.9546 H   0  0  0  0  0  0  0  0  0  0  0  0
   -8.4571   -4.1877   -6.8031 H   0  0  0  0  0  0  0  0  0  0  0  0
  -10.5163   -4.0087   -8.2892 H   0  0  0  0  0  0  0  0  0  0  0  0
  -11.3433   -5.0410   -7.0643 H   0  0  0  0  0  0  0  0  0  0  0  0
  -10.4126   -2.2002   -6.9238 H   0  0  0  0  0  0  0  0  0  0  0  0
  -12.6668   -3.8022   -5.5693 H   0  0  0  0  0  0  0  0  0  0  0  0
  -12.2315   -2.1411   -4.9883 H   0  0  0  0  0  0  0  0  0  0  0  0
  -12.4558   -1.8271   -7.7830 H   0  0  0  0  0  0  0  0  0  0  0  0
  -13.7987   -2.9494   -7.3781 H   0  0  0  0  0  0  0  0  0  0  0  0
  -13.6870   -1.3519   -6.5644 H   0  0  0  0  0  0  0  0  0  0  0  0
   -8.3420   -1.6517   -2.5428 H   0  0  0  0  0  0  0  0  0  0  0  0
   -8.4721   -4.5304   -3.8731 H   0  0  0  0  0  0  0  0  0  0  0  0
   -6.4220   -2.3441   -1.5910 H   0  0  0  0  0  0  0  0  0  0  0  0
   -5.1219   -3.1058    0.4169 H   0  0  0  0  0  0  0  0  0  0  0  0
   -4.0248   -3.9185    1.6467 H   0  0  0  0  0  0  0  0  0  0  0  0
   -5.1025   -4.0891    3.0736 H   0  0  0  0  0  0  0  0  0  0  0  0
   -3.7020   -5.1951    2.8683 H   0  0  0  0  0  0  0  0  0  0  0  0
   -7.0046   -6.9578    0.1527 H   0  0  0  0  0  0  0  0  0  0  0  0
   -8.2891   -6.1937   -1.8035 H   0  0  0  0  0  0  0  0  0  0  0  0
  2  1  1  0
  3  2  1  0
  4  3  1  0
  5  4  1  0
  6  5  1  0
  7  6  1  0
  8  5  1  0
  9  8  1  0
 10  9  2  0
 11  9  1  0
 12 11  2  3
 13 12  1  0
 14 13  1  0
 15 14  2  0
 16 15  1  0
 17 16  1  0
 18 17  1  0
 19 16  2  0
 20 19  1  0
 20 13  2  0
  1 21  1  0
  1 22  1  0
  1 23  1  0
  2 24  1  0
  2 25  1  0
  3 26  1  0
  3 27  1  0
  4 28  1  0
  4 29  1  0
  5 30  1  6
  6 31  1  0
  6 32  1  0
  7 33  1  0
  7 34  1  0
  7 35  1  0
 11 36  1  0
 12 37  1  0
 14 38  1  0
 15 39  1  0
 18 40  1  0
 18 41  1  0
 18 42  1  0
 19 43  1  0
 20 44  1  0
M  END
$$$$
