/Users/cafierom/python_mac/peptidebuilder/runs/octinoxate/folds/dock_stage/rf3/bg33_4_rf3cof_ligand.sdf.ligand.pdb
 OpenBabel10092620463D

 20 20  0  0  1  0  0  0  0  0999 V2000
   -8.5400   -6.5970   -9.4560 C   0  0  0  0  0  0  0  0  0  0  0  0
   -9.4530   -5.4400   -9.3280 C   0  0  0  0  0  0  0  0  0  0  0  0
   -9.6720   -5.0630   -7.9070 C   0  0  0  0  0  0  0  0  0  0  0  0
  -10.5170   -3.8240   -7.7700 C   0  0  0  0  0  0  0  0  0  0  0  0
  -10.7210   -3.4300   -6.3310 C   0  0  2  0  0  0  0  0  0  0  0  0
  -11.0840   -1.9350   -6.2540 C   0  0  0  0  0  0  0  0  0  0  0  0
  -12.0500   -1.5990   -5.2160 C   0  0  0  0  0  0  0  0  0  0  0  0
   -9.5290   -3.7010   -5.6520 O   0  0  0  0  0  0  0  0  0  0  0  0
   -9.6330   -3.9340   -4.3170 C   0  0  0  0  0  0  0  0  0  0  0  0
  -10.6700   -3.9490   -3.7380 O   0  0  0  0  0  0  0  0  0  0  0  0
   -8.3450   -4.1760   -3.6110 C   0  0  0  0  0  0  0  0  0  0  0  0
   -8.0930   -3.1250   -2.6410 C   0  0  0  0  0  0  0  0  0  0  0  0
   -7.2920   -3.5870   -1.4750 C   0  0  0  0  0  0  0  0  0  0  0  0
   -5.9930   -3.1060   -1.3090 C   0  0  0  0  0  0  0  0  0  0  0  0
   -5.2670   -3.5400   -0.2070 C   0  0  0  0  0  0  0  0  0  0  0  0
   -5.8360   -4.3910    0.7090 C   0  0  0  0  0  0  0  0  0  0  0  0
   -5.0730   -4.7670    1.7880 O   0  0  0  0  0  0  0  0  0  0  0  0
   -5.6880   -5.2210    2.9550 C   0  0  0  0  0  0  0  0  0  0  0  0
   -7.1350   -4.8440    0.5410 C   0  0  0  0  0  0  0  0  0  0  0  0
   -7.8770   -4.4380   -0.5330 C   0  0  0  0  0  0  0  0  0  0  0  0
  1  2  1  0  0  0  0
  2  3  1  0  0  0  0
  3  4  1  0  0  0  0
  5  4  1  6  0  0  0
  5  6  1  0  0  0  0
  5  8  1  0  0  0  0
  6  7  1  0  0  0  0
  8  9  1  0  0  0  0
  9 10  2  0  0  0  0
  9 11  1  0  0  0  0
 11 12  1  0  0  0  0
 12 13  1  0  0  0  0
 13 14  2  0  0  0  0
 13 20  1  0  0  0  0
 14 15  1  0  0  0  0
 15 16  2  0  0  0  0
 16 17  1  0  0  0  0
 17 18  1  0  0  0  0
 19 16  1  0  0  0  0
 20 19  2  0  0  0  0
M  END
$$$$
