/Users/cafierom/python_mac/peptidebuilder/runs/octinoxate/folds/dock_stage/rf3/bg33_3_rf3cof_ligand.sdf.ligand.pdb
 OpenBabel10092620453D

 20 20  0  0  1  0  0  0  0  0999 V2000
   -8.1430    7.8200    4.1230 C   0  0  0  0  0  0  0  0  0  0  0  0
   -8.9070    6.7210    3.5990 C   0  0  0  0  0  0  0  0  0  0  0  0
   -9.3940    6.9990    2.2170 C   0  0  0  0  0  0  0  0  0  0  0  0
  -10.0810    5.8110    1.6180 C   0  0  0  0  0  0  0  0  0  0  0  0
  -10.4970    6.1330    0.2310 C   0  0  2  0  0  0  0  0  0  0  0  0
  -11.1430    4.9410   -0.4530 C   0  0  0  0  0  0  0  0  0  0  0  0
  -10.4450    3.6790   -0.2340 C   0  0  0  0  0  0  0  0  0  0  0  0
   -9.3810    6.5900   -0.4220 O   0  0  0  0  0  0  0  0  0  0  0  0
   -9.5910    7.2210   -1.5750 C   0  0  0  0  0  0  0  0  0  0  0  0
  -10.6420    7.2850   -2.0830 O   0  0  0  0  0  0  0  0  0  0  0  0
   -8.3630    7.7940   -2.1600 C   0  0  0  0  0  0  0  0  0  0  0  0
   -8.5940    8.9890   -2.8750 C   0  0  0  0  0  0  0  0  0  0  0  0
   -7.4520    9.4690   -3.6840 C   0  0  0  0  0  0  0  0  0  0  0  0
   -6.1820    9.0910   -3.3920 C   0  0  0  0  0  0  0  0  0  0  0  0
   -5.1190    9.5460   -4.1540 C   0  0  0  0  0  0  0  0  0  0  0  0
   -5.3760   10.3750   -5.2200 C   0  0  0  0  0  0  0  0  0  0  0  0
   -4.3890   10.8690   -6.0090 O   0  0  0  0  0  0  0  0  0  0  0  0
   -3.1220   10.3720   -5.8100 C   0  0  0  0  0  0  0  0  0  0  0  0
   -6.6440   10.7460   -5.4920 C   0  0  0  0  0  0  0  0  0  0  0  0
   -7.6900   10.2950   -4.7380 C   0  0  0  0  0  0  0  0  0  0  0  0
  2  1  1  0  0  0  0
  3  2  1  0  0  0  0
  4  3  1  0  0  0  0
  5  6  1  6  0  0  0
  5  4  1  0  0  0  0
  6  7  1  0  0  0  0
  8  5  1  0  0  0  0
  9  8  1  0  0  0  0
 10  9  2  0  0  0  0
 11  9  1  0  0  0  0
 12 11  1  0  0  0  0
 13 14  1  0  0  0  0
 13 12  1  0  0  0  0
 15 14  2  0  0  0  0
 16 15  1  0  0  0  0
 17 18  1  0  0  0  0
 17 16  1  0  0  0  0
 19 16  2  0  0  0  0
 19 20  1  0  0  0  0
 20 13  2  0  0  0  0
M  END
$$$$
