bg33_3_ligand
     RDKit          3D

 44 44  0  0  0  0  0  0  0  0999 V2000
   -9.4135    6.1309    5.1187 C   0  0  0  0  0  0  0  0  0  0  0  0
  -10.4160    6.5266    4.0129 C   0  0  0  0  0  0  0  0  0  0  0  0
   -9.9950    5.8782    2.7329 C   0  0  0  0  0  0  0  0  0  0  0  0
  -10.6402    6.5270    1.4884 C   0  0  0  0  0  0  0  0  0  0  0  0
   -9.9225    5.9847    0.2655 C   0  0  1  0  0  0  0  0  0  0  0  0
  -10.6925    4.8989   -0.3269 C   0  0  0  0  0  0  0  0  0  0  0  0
  -11.3973    5.2872   -1.5919 C   0  0  0  0  0  0  0  0  0  0  0  0
   -9.7465    7.0323   -0.7404 O   0  0  0  0  0  0  0  0  0  0  0  0
   -8.7183    7.7622   -0.6468 C   0  0  0  0  0  0  0  0  0  0  0  0
   -8.1402    7.7720    0.4152 O   0  0  0  0  0  0  0  0  0  0  0  0
   -8.2418    8.6387   -1.8529 C   0  0  0  0  0  0  0  0  0  0  0  0
   -7.3618    8.1102   -2.7338 C   0  0  0  0  0  0  0  0  0  0  0  0
   -6.8008    8.8833   -3.8121 C   0  0  0  0  0  0  0  0  0  0  0  0
   -5.8954    9.8927   -3.5717 C   0  0  0  0  0  0  0  0  0  0  0  0
   -5.3182   10.5962   -4.5661 C   0  0  0  0  0  0  0  0  0  0  0  0
   -5.6574   10.2883   -5.8637 C   0  0  0  0  0  0  0  0  0  0  0  0
   -5.1548   10.9698   -6.9153 O   0  0  0  0  0  0  0  0  0  0  0  0
   -3.9250   11.6353   -6.6862 C   0  0  0  0  0  0  0  0  0  0  0  0
   -6.5749    9.3215   -6.1368 C   0  0  0  0  0  0  0  0  0  0  0  0
   -7.1430    8.6099   -5.1020 C   0  0  0  0  0  0  0  0  0  0  0  0
   -8.3866    6.2660    4.7480 H   0  0  0  0  0  0  0  0  0  0  0  0
   -9.5713    6.7677    6.0016 H   0  0  0  0  0  0  0  0  0  0  0  0
   -9.5682    5.0773    5.3941 H   0  0  0  0  0  0  0  0  0  0  0  0
  -11.4246    6.1843    4.2875 H   0  0  0  0  0  0  0  0  0  0  0  0
  -10.4311    7.6200    3.8931 H   0  0  0  0  0  0  0  0  0  0  0  0
   -8.9016    5.9574    2.6427 H   0  0  0  0  0  0  0  0  0  0  0  0
  -10.3286    4.8307    2.7687 H   0  0  0  0  0  0  0  0  0  0  0  0
  -11.7085    6.2689    1.4419 H   0  0  0  0  0  0  0  0  0  0  0  0
  -10.5528    7.6226    1.5341 H   0  0  0  0  0  0  0  0  0  0  0  0
   -8.9371    5.6177    0.5885 H   0  0  0  0  0  0  0  0  0  0  0  0
  -10.0074    4.0680   -0.5508 H   0  0  0  0  0  0  0  0  0  0  0  0
  -11.4667    4.6161    0.4015 H   0  0  0  0  0  0  0  0  0  0  0  0
  -10.6549    5.5605   -2.3562 H   0  0  0  0  0  0  0  0  0  0  0  0
  -11.9988    4.4394   -1.9515 H   0  0  0  0  0  0  0  0  0  0  0  0
  -12.0553    6.1467   -1.3960 H   0  0  0  0  0  0  0  0  0  0  0  0
   -8.6155    9.6652   -1.9817 H   0  0  0  0  0  0  0  0  0  0  0  0
   -7.0651    7.0568   -2.6232 H   0  0  0  0  0  0  0  0  0  0  0  0
   -5.6338   10.1335   -2.5308 H   0  0  0  0  0  0  0  0  0  0  0  0
   -4.5950   11.3953   -4.3461 H   0  0  0  0  0  0  0  0  0  0  0  0
   -3.3778   11.7315   -7.6355 H   0  0  0  0  0  0  0  0  0  0  0  0
   -4.1209   12.6357   -6.2728 H   0  0  0  0  0  0  0  0  0  0  0  0
   -3.3217   11.0553   -5.9723 H   0  0  0  0  0  0  0  0  0  0  0  0
   -6.8616    9.1089   -7.1773 H   0  0  0  0  0  0  0  0  0  0  0  0
   -7.8755    7.8183   -5.3186 H   0  0  0  0  0  0  0  0  0  0  0  0
  2  1  1  0
  3  2  1  0
  4  3  1  0
  5  4  1  0
  6  5  1  0
  7  6  1  0
  8  5  1  0
  9  8  1  0
 10  9  2  0
 11  9  1  0
 12 11  2  3
 13 12  1  0
 14 13  1  0
 15 14  2  0
 16 15  1  0
 17 16  1  0
 18 17  1  0
 19 16  2  0
 20 19  1  0
 20 13  2  0
  1 21  1  0
  1 22  1  0
  1 23  1  0
  2 24  1  0
  2 25  1  0
  3 26  1  0
  3 27  1  0
  4 28  1  0
  4 29  1  0
  5 30  1  1
  6 31  1  0
  6 32  1  0
  7 33  1  0
  7 34  1  0
  7 35  1  0
 11 36  1  0
 12 37  1  0
 14 38  1  0
 15 39  1  0
 18 40  1  0
 18 41  1  0
 18 42  1  0
 19 43  1  0
 20 44  1  0
M  END
$$$$
