/Users/cafierom/python_mac/peptidebuilder/runs/octinoxate/folds/dock_stage/rf3/bg33_1_rf3cof_ligand.sdf.ligand.pdb
 OpenBabel10092620443D

 20 20  0  0  1  0  0  0  0  0999 V2000
   -2.0980   -2.9550   -9.3340 C   0  0  0  0  0  0  0  0  0  0  0  0
   -1.9290   -3.0630   -7.8790 C   0  0  0  0  0  0  0  0  0  0  0  0
   -1.2290   -1.8980   -7.2970 C   0  0  0  0  0  0  0  0  0  0  0  0
   -1.1200   -1.9940   -5.8000 C   0  0  0  0  0  0  0  0  0  0  0  0
   -0.3280   -0.8580   -5.2260 C   0  0  2  0  0  0  0  0  0  0  0  0
   -0.1530   -1.0250   -3.7310 C   0  0  0  0  0  0  0  0  0  0  0  0
    0.9870   -1.8430   -3.3800 C   0  0  0  0  0  0  0  0  0  0  0  0
   -1.0290    0.2850   -5.5430 O   0  0  0  0  0  0  0  0  0  0  0  0
   -0.3950    1.4610   -5.3360 C   0  0  0  0  0  0  0  0  0  0  0  0
    0.7200    1.5130   -4.9050 O   0  0  0  0  0  0  0  0  0  0  0  0
   -1.1600    2.6790   -5.6590 C   0  0  0  0  0  0  0  0  0  0  0  0
   -0.3650    3.8570   -5.4770 C   0  0  0  0  0  0  0  0  0  0  0  0
   -0.9800    5.1730   -5.7390 C   0  0  0  0  0  0  0  0  0  0  0  0
   -0.6970    5.8120   -6.9310 C   0  0  0  0  0  0  0  0  0  0  0  0
   -1.2230    7.0750   -7.1640 C   0  0  0  0  0  0  0  0  0  0  0  0
   -2.0030    7.6550   -6.1950 C   0  0  0  0  0  0  0  0  0  0  0  0
   -2.5410    8.8750   -6.4110 O   0  0  0  0  0  0  0  0  0  0  0  0
   -1.7050    9.9990   -6.1810 C   0  0  0  0  0  0  0  0  0  0  0  0
   -2.2390    7.0190   -4.9920 C   0  0  0  0  0  0  0  0  0  0  0  0
   -1.7140    5.7860   -4.7580 C   0  0  0  0  0  0  0  0  0  0  0  0
  1  2  1  0  0  0  0
  2  3  1  0  0  0  0
  3  4  1  0  0  0  0
  5  4  1  1  0  0  0
  5  6  1  0  0  0  0
  6  7  1  0  0  0  0
  8  9  1  0  0  0  0
  8  5  1  0  0  0  0
  9 10  2  0  0  0  0
 11 12  1  0  0  0  0
 11  9  1  0  0  0  0
 13 12  1  0  0  0  0
 13 20  1  0  0  0  0
 14 13  2  0  0  0  0
 15 14  1  0  0  0  0
 15 16  2  0  0  0  0
 16 19  1  0  0  0  0
 17 16  1  0  0  0  0
 17 18  1  0  0  0  0
 19 20  2  0  0  0  0
M  END
$$$$
