/Users/cafierom/python_mac/peptidebuilder/runs/octinoxate/folds/dock_stage/rf3/bg33_2_rf3cof_ligand.sdf.ligand.pdb
 OpenBabel10092620453D

 20 20  0  0  1  0  0  0  0  0999 V2000
    1.4030   -7.4530   13.9300 C   0  0  0  0  0  0  0  0  0  0  0  0
    0.7770   -6.2930   14.4570 C   0  0  0  0  0  0  0  0  0  0  0  0
   -0.5790   -6.0560   13.9240 C   0  0  0  0  0  0  0  0  0  0  0  0
   -1.1360   -4.7410   14.3270 C   0  0  0  0  0  0  0  0  0  0  0  0
   -2.5240   -4.5180   13.8760 C   0  0  2  0  0  0  0  0  0  0  0  0
   -3.5360   -5.2750   14.6680 C   0  0  0  0  0  0  0  0  0  0  0  0
   -3.5810   -4.7690   16.0750 C   0  0  0  0  0  0  0  0  0  0  0  0
   -2.6750   -4.8640   12.5770 O   0  0  0  0  0  0  0  0  0  0  0  0
   -2.6830   -3.8200   11.6750 C   0  0  0  0  0  0  0  0  0  0  0  0
   -2.2570   -2.7650   11.9560 O   0  0  0  0  0  0  0  0  0  0  0  0
   -3.2410   -4.1240   10.3630 C   0  0  0  0  0  0  0  0  0  0  0  0
   -2.1730   -4.3720    9.3810 C   0  0  0  0  0  0  0  0  0  0  0  0
   -2.6440   -4.3580    7.9820 C   0  0  0  0  0  0  0  0  0  0  0  0
   -2.6500   -3.1630    7.2900 C   0  0  0  0  0  0  0  0  0  0  0  0
   -3.0800   -3.1460    5.9980 C   0  0  0  0  0  0  0  0  0  0  0  0
   -3.4800   -4.3000    5.4190 C   0  0  0  0  0  0  0  0  0  0  0  0
   -3.8810   -4.3460    4.1100 O   0  0  0  0  0  0  0  0  0  0  0  0
   -3.7360   -3.1950    3.3430 C   0  0  0  0  0  0  0  0  0  0  0  0
   -3.4750   -5.4720    6.1130 C   0  0  0  0  0  0  0  0  0  0  0  0
   -3.0540   -5.5180    7.4110 C   0  0  0  0  0  0  0  0  0  0  0  0
  1  2  1  0  0  0  0
  3  4  1  0  0  0  0
  3  2  1  0  0  0  0
  5  4  1  1  0  0  0
  5  6  1  0  0  0  0
  6  7  1  0  0  0  0
  8  5  1  0  0  0  0
  9 10  2  0  0  0  0
  9  8  1  0  0  0  0
 11  9  1  0  0  0  0
 12 11  1  0  0  0  0
 13 12  1  0  0  0  0
 14 13  2  0  0  0  0
 15 14  1  0  0  0  0
 16 15  2  0  0  0  0
 16 19  1  0  0  0  0
 17 16  1  0  0  0  0
 18 17  1  0  0  0  0
 19 20  2  0  0  0  0
 20 13  1  0  0  0  0
M  END
$$$$
