/Users/cafierom/python_mac/peptidebuilder/runs/octinoxate/folds/dock_stage/rf3/orig_f12_rf3cof_ligand.sdf.ligand.pdb
 OpenBabel10092620373D

 20 20  0  0  1  0  0  0  0  0999 V2000
   -0.0150   -1.5470    9.4100 C   0  0  0  0  0  0  0  0  0  0  0  0
    0.1730   -2.0860    8.0850 C   0  0  0  0  0  0  0  0  0  0  0  0
    0.5390   -1.1010    7.1060 C   0  0  0  0  0  0  0  0  0  0  0  0
    0.7200   -1.6680    5.7550 C   0  0  0  0  0  0  0  0  0  0  0  0
    1.2090   -0.6360    4.8000 C   0  0  2  0  0  0  0  0  0  0  0  0
    1.4040   -1.0740    3.3900 C   0  0  0  0  0  0  0  0  0  0  0  0
    0.7030   -2.2650    3.0040 C   0  0  0  0  0  0  0  0  0  0  0  0
    2.4300   -0.2250    5.2920 O   0  0  0  0  0  0  0  0  0  0  0  0
    2.5090    1.0510    5.6340 C   0  0  0  0  0  0  0  0  0  0  0  0
    1.5850    1.8060    5.5320 O   0  0  0  0  0  0  0  0  0  0  0  0
    3.8400    1.4390    6.1150 C   0  0  0  0  0  0  0  0  0  0  0  0
    3.8670    2.7780    6.5900 C   0  0  0  0  0  0  0  0  0  0  0  0
    5.1590    3.2820    6.9910 C   0  0  0  0  0  0  0  0  0  0  0  0
    5.7790    4.2560    6.2530 C   0  0  0  0  0  0  0  0  0  0  0  0
    6.9880    4.7350    6.6360 C   0  0  0  0  0  0  0  0  0  0  0  0
    7.5810    4.2750    7.7640 C   0  0  0  0  0  0  0  0  0  0  0  0
    8.7880    4.8120    8.1150 O   0  0  0  0  0  0  0  0  0  0  0  0
    9.3450    4.5210    9.3630 C   0  0  0  0  0  0  0  0  0  0  0  0
    6.9590    3.3270    8.5400 C   0  0  0  0  0  0  0  0  0  0  0  0
    5.7380    2.8290    8.1640 C   0  0  0  0  0  0  0  0  0  0  0  0
  2  1  1  0  0  0  0
  3  2  1  0  0  0  0
  4  3  1  0  0  0  0
  5  6  1  6  0  0  0
  5  8  1  0  0  0  0
  5  4  1  0  0  0  0
  7  6  1  0  0  0  0
  8  9  1  0  0  0  0
  9 11  1  0  0  0  0
 10  9  2  0  0  0  0
 11 12  1  0  0  0  0
 12 13  1  0  0  0  0
 13 20  1  0  0  0  0
 14 15  1  0  0  0  0
 14 13  2  0  0  0  0
 15 16  2  0  0  0  0
 16 17  1  0  0  0  0
 16 19  1  0  0  0  0
 17 18  1  0  0  0  0
 20 19  2  0  0  0  0
M  END
$$$$
