/Users/cafierom/python_mac/peptidebuilder/runs/octinoxate/folds/dock_stage/rf3/s2_esm2_control_rf3cof_ligand.sdf.ligand.pdb
 OpenBabel10092620383D

 20 20  0  0  1  0  0  0  0  0999 V2000
   -8.4500  -10.4470  -12.6440 C   0  0  0  0  0  0  0  0  0  0  0  0
   -7.9820   -9.0470  -12.5620 C   0  0  0  0  0  0  0  0  0  0  0  0
   -7.0670   -8.8370  -11.4420 C   0  0  0  0  0  0  0  0  0  0  0  0
   -6.6330   -7.4090  -11.3500 C   0  0  0  0  0  0  0  0  0  0  0  0
   -5.5720   -7.2610  -10.2520 C   0  0  1  0  0  0  0  0  0  0  0  0
   -4.6340   -6.0780  -10.6000 C   0  0  0  0  0  0  0  0  0  0  0  0
   -3.2870   -6.3650  -10.1480 C   0  0  0  0  0  0  0  0  0  0  0  0
   -6.2150   -6.9960   -9.0450 O   0  0  0  0  0  0  0  0  0  0  0  0
   -6.1620   -8.0090   -8.1380 C   0  0  0  0  0  0  0  0  0  0  0  0
   -5.7330   -9.0570   -8.4320 O   0  0  0  0  0  0  0  0  0  0  0  0
   -6.6680   -7.6930   -6.7850 C   0  0  0  0  0  0  0  0  0  0  0  0
   -6.1520   -8.5790   -5.8000 C   0  0  0  0  0  0  0  0  0  0  0  0
   -6.6740   -8.4390   -4.4160 C   0  0  0  0  0  0  0  0  0  0  0  0
   -7.2990   -7.2910   -4.0020 C   0  0  0  0  0  0  0  0  0  0  0  0
   -7.7750   -7.1830   -2.7100 C   0  0  0  0  0  0  0  0  0  0  0  0
   -7.6640   -8.2140   -1.8500 C   0  0  0  0  0  0  0  0  0  0  0  0
   -8.1600   -8.0570   -0.5760 O   0  0  0  0  0  0  0  0  0  0  0  0
   -8.1720   -9.1560    0.2660 C   0  0  0  0  0  0  0  0  0  0  0  0
   -7.0410   -9.3800   -2.2600 C   0  0  0  0  0  0  0  0  0  0  0  0
   -6.5450   -9.5120   -3.5420 C   0  0  0  0  0  0  0  0  0  0  0  0
  1  2  1  0  0  0  0
  2  3  1  0  0  0  0
  3  4  1  0  0  0  0
  5  4  1  6  0  0  0
  5  8  1  0  0  0  0
  6  5  1  0  0  0  0
  6  7  1  0  0  0  0
  8  9  1  0  0  0  0
  9 11  1  0  0  0  0
 10  9  2  0  0  0  0
 11 12  1  0  0  0  0
 12 13  1  0  0  0  0
 13 14  2  0  0  0  0
 13 20  1  0  0  0  0
 14 15  1  0  0  0  0
 15 16  2  0  0  0  0
 16 17  1  0  0  0  0
 17 18  1  0  0  0  0
 19 16  1  0  0  0  0
 20 19  2  0  0  0  0
M  END
$$$$
