/Users/cafierom/python_mac/peptidebuilder/runs/octinoxate/folds/dock_stage/rf3/s3_esm2_f4_rf3cof_ligand.sdf.ligand.pdb
 OpenBabel10092620383D

 20 20  0  0  1  0  0  0  0  0999 V2000
    7.5700    0.7640  -12.0180 C   0  0  0  0  0  0  0  0  0  0  0  0
    7.9700    0.4150  -10.6610 C   0  0  0  0  0  0  0  0  0  0  0  0
    7.1610   -0.6720  -10.1360 C   0  0  0  0  0  0  0  0  0  0  0  0
    7.4880   -0.9560   -8.6960 C   0  0  0  0  0  0  0  0  0  0  0  0
    6.2560   -1.4340   -7.9620 C   0  0  2  0  0  0  0  0  0  0  0  0
    5.1580   -0.4160   -8.0850 C   0  0  0  0  0  0  0  0  0  0  0  0
    3.8850   -0.9390   -7.6190 C   0  0  0  0  0  0  0  0  0  0  0  0
    6.5620   -1.5960   -6.6170 O   0  0  0  0  0  0  0  0  0  0  0  0
    6.3700   -2.8430   -6.0980 C   0  0  0  0  0  0  0  0  0  0  0  0
    6.0400   -3.7660   -6.7620 O   0  0  0  0  0  0  0  0  0  0  0  0
    6.6140   -3.0030   -4.6460 C   0  0  0  0  0  0  0  0  0  0  0  0
    5.3760   -3.3790   -3.9020 C   0  0  0  0  0  0  0  0  0  0  0  0
    5.6440   -3.7970   -2.4840 C   0  0  0  0  0  0  0  0  0  0  0  0
    5.9560   -5.1060   -2.1990 C   0  0  0  0  0  0  0  0  0  0  0  0
    6.2200   -5.4620   -0.8980 C   0  0  0  0  0  0  0  0  0  0  0  0
    6.1700   -4.5350    0.1180 C   0  0  0  0  0  0  0  0  0  0  0  0
    6.4240   -4.8610    1.4320 O   0  0  0  0  0  0  0  0  0  0  0  0
    7.0970   -6.0510    1.6870 C   0  0  0  0  0  0  0  0  0  0  0  0
    5.8610   -3.2360   -0.1860 C   0  0  0  0  0  0  0  0  0  0  0  0
    5.5850   -2.8630   -1.4940 C   0  0  0  0  0  0  0  0  0  0  0  0
  1  2  1  0  0  0  0
  2  3  1  0  0  0  0
  3  4  1  0  0  0  0
  5  4  1  6  0  0  0
  5  8  1  0  0  0  0
  6  5  1  0  0  0  0
  6  7  1  0  0  0  0
  8  9  1  0  0  0  0
  9 11  1  0  0  0  0
 10  9  2  0  0  0  0
 11 12  1  0  0  0  0
 12 13  1  0  0  0  0
 13 14  2  0  0  0  0
 13 20  1  0  0  0  0
 14 15  1  0  0  0  0
 15 16  2  0  0  0  0
 16 17  1  0  0  0  0
 17 18  1  0  0  0  0
 19 16  1  0  0  0  0
 20 19  2  0  0  0  0
M  END
$$$$
