/Users/cafierom/python_mac/peptidebuilder/runs/octinoxate/folds/dock_stage/rf3/s3_orig_f12_rf3cof_ligand.sdf.ligand.pdb
 OpenBabel10092620403D

 20 20  0  0  1  0  0  0  0  0999 V2000
    7.9490   -1.5160    7.3610 C   0  0  0  0  0  0  0  0  0  0  0  0
    8.8240   -2.4360    6.6550 C   0  0  0  0  0  0  0  0  0  0  0  0
    8.7410   -2.3560    5.2040 C   0  0  0  0  0  0  0  0  0  0  0  0
    9.6070   -3.3520    4.5420 C   0  0  0  0  0  0  0  0  0  0  0  0
    9.4220   -3.3990    3.0470 C   0  0  2  0  0  0  0  0  0  0  0  0
   10.1740   -4.5700    2.4730 C   0  0  0  0  0  0  0  0  0  0  0  0
    9.5760   -5.1650    1.2970 C   0  0  0  0  0  0  0  0  0  0  0  0
    9.9060   -2.1740    2.5380 O   0  0  0  0  0  0  0  0  0  0  0  0
    9.2530   -1.6100    1.5060 C   0  0  0  0  0  0  0  0  0  0  0  0
    8.2470   -2.0500    1.0110 O   0  0  0  0  0  0  0  0  0  0  0  0
    9.9140   -0.3940    1.0180 C   0  0  0  0  0  0  0  0  0  0  0  0
    9.2770    0.2660   -0.0620 C   0  0  0  0  0  0  0  0  0  0  0  0
    9.9740    1.4620   -0.6090 C   0  0  0  0  0  0  0  0  0  0  0  0
   11.0990    1.9800    0.0040 C   0  0  0  0  0  0  0  0  0  0  0  0
   11.6640    3.0820   -0.5240 C   0  0  0  0  0  0  0  0  0  0  0  0
   11.1870    3.6930   -1.6380 C   0  0  0  0  0  0  0  0  0  0  0  0
   11.8530    4.7840   -2.0830 O   0  0  0  0  0  0  0  0  0  0  0  0
   11.4220    5.4100   -3.2940 C   0  0  0  0  0  0  0  0  0  0  0  0
   10.0640    3.1830   -2.2590 C   0  0  0  0  0  0  0  0  0  0  0  0
    9.4420    2.0480   -1.7380 C   0  0  0  0  0  0  0  0  0  0  0  0
  2  1  1  0  0  0  0
  3  2  1  0  0  0  0
  4  3  1  0  0  0  0
  5  6  1  6  0  0  0
  5  4  1  0  0  0  0
  7  6  1  0  0  0  0
  8  5  1  0  0  0  0
  9  8  1  0  0  0  0
 10  9  2  0  0  0  0
 11  9  1  0  0  0  0
 12 11  2  0  0  0  0
 13 12  1  0  0  0  0
 13 14  1  0  0  0  0
 15 14  2  0  0  0  0
 16 15  1  0  0  0  0
 17 16  1  0  0  0  0
 18 17  1  0  0  0  0
 19 20  1  0  0  0  0
 19 16  2  0  0  0  0
 20 13  2  0  0  0  0
M  END
$$$$
