s3_orig_f12_ligand
     RDKit          3D

 44 44  0  0  0  0  0  0  0  0999 V2000
    8.5668   -0.2896    6.4750 C   0  0  0  0  0  0  0  0  0  0  0  0
    8.4220   -1.7220    6.0090 C   0  0  0  0  0  0  0  0  0  0  0  0
    8.9179   -1.9006    4.5970 C   0  0  0  0  0  0  0  0  0  0  0  0
    8.8150   -3.3130    4.1233 C   0  0  0  0  0  0  0  0  0  0  0  0
    8.6144   -3.4727    2.6246 C   0  0  2  0  0  0  0  0  0  0  0  0
    8.9168   -4.9003    2.2087 C   0  0  0  0  0  0  0  0  0  0  0  0
    8.1612   -5.9545    3.0101 C   0  0  0  0  0  0  0  0  0  0  0  0
    9.3630   -2.6304    1.9393 O   0  0  0  0  0  0  0  0  0  0  0  0
   10.3147   -2.0485    1.4007 C   0  0  0  0  0  0  0  0  0  0  0  0
   11.4122   -2.5328    1.5037 O   0  0  0  0  0  0  0  0  0  0  0  0
   10.0285   -0.7738    0.7021 C   0  0  0  0  0  0  0  0  0  0  0  0
   10.9878   -0.0569    0.1224 C   0  0  0  0  0  0  0  0  0  0  0  0
   10.7778    1.2724   -0.5052 C   0  0  0  0  0  0  0  0  0  0  0  0
   11.8753    2.0660   -0.7946 C   0  0  0  0  0  0  0  0  0  0  0  0
   11.7048    3.3473   -1.3067 C   0  0  0  0  0  0  0  0  0  0  0  0
   10.4446    3.8300   -1.5941 C   0  0  0  0  0  0  0  0  0  0  0  0
   10.2289    5.0879   -2.1187 O   0  0  0  0  0  0  0  0  0  0  0  0
   11.1495    6.1084   -1.7801 C   0  0  0  0  0  0  0  0  0  0  0  0
    9.3651    3.0214   -1.3555 C   0  0  0  0  0  0  0  0  0  0  0  0
    9.5288    1.7478   -0.8120 C   0  0  0  0  0  0  0  0  0  0  0  0
    7.5696    0.1502    6.6238 H   0  0  0  0  0  0  0  0  0  0  0  0
    9.1227   -0.2672    7.4240 H   0  0  0  0  0  0  0  0  0  0  0  0
    9.1135    0.2894    5.7161 H   0  0  0  0  0  0  0  0  0  0  0  0
    9.0036   -2.3748    6.6766 H   0  0  0  0  0  0  0  0  0  0  0  0
    7.3541   -1.9848    6.0337 H   0  0  0  0  0  0  0  0  0  0  0  0
    8.3197   -1.2618    3.9307 H   0  0  0  0  0  0  0  0  0  0  0  0
    9.9819   -1.6220    4.5812 H   0  0  0  0  0  0  0  0  0  0  0  0
    9.7425   -3.8350    4.4014 H   0  0  0  0  0  0  0  0  0  0  0  0
    7.9182   -3.7340    4.6012 H   0  0  0  0  0  0  0  0  0  0  0  0
    7.5625   -3.2420    2.3999 H   0  0  0  0  0  0  0  0  0  0  0  0
    8.6495   -5.0152    1.1479 H   0  0  0  0  0  0  0  0  0  0  0  0
    9.9879   -5.0658    2.3967 H   0  0  0  0  0  0  0  0  0  0  0  0
    7.3236   -5.4798    3.5422 H   0  0  0  0  0  0  0  0  0  0  0  0
    7.7728   -6.7250    2.3279 H   0  0  0  0  0  0  0  0  0  0  0  0
    8.8421   -6.4191    3.7384 H   0  0  0  0  0  0  0  0  0  0  0  0
    8.9915   -0.4091    0.6614 H   0  0  0  0  0  0  0  0  0  0  0  0
   12.0043   -0.4769    0.1070 H   0  0  0  0  0  0  0  0  0  0  0  0
   12.8899    1.6796   -0.6179 H   0  0  0  0  0  0  0  0  0  0  0  0
   12.5844    3.9833   -1.4848 H   0  0  0  0  0  0  0  0  0  0  0  0
   10.6001    7.0134   -1.4815 H   0  0  0  0  0  0  0  0  0  0  0  0
   11.7807    5.7705   -0.9450 H   0  0  0  0  0  0  0  0  0  0  0  0
   11.7829    6.3344   -2.6505 H   0  0  0  0  0  0  0  0  0  0  0  0
    8.3541    3.3820   -1.5961 H   0  0  0  0  0  0  0  0  0  0  0  0
    8.6463    1.1176   -0.6273 H   0  0  0  0  0  0  0  0  0  0  0  0
  2  1  1  0
  3  2  1  0
  4  3  1  0
  5  4  1  0
  6  5  1  0
  7  6  1  0
  8  5  1  0
  9  8  1  0
 10  9  2  0
 11  9  1  0
 12 11  2  3
 13 12  1  0
 14 13  1  0
 15 14  2  0
 16 15  1  0
 17 16  1  0
 18 17  1  0
 19 16  2  0
 20 19  1  0
 20 13  2  0
  1 21  1  0
  1 22  1  0
  1 23  1  0
  2 24  1  0
  2 25  1  0
  3 26  1  0
  3 27  1  0
  4 28  1  0
  4 29  1  0
  5 30  1  1
  6 31  1  0
  6 32  1  0
  7 33  1  0
  7 34  1  0
  7 35  1  0
 11 36  1  0
 12 37  1  0
 14 38  1  0
 15 39  1  0
 18 40  1  0
 18 41  1  0
 18 42  1  0
 19 43  1  0
 20 44  1  0
M  END
$$$$
