/Users/cafierom/python_mac/peptidebuilder/runs/octinoxate/folds/dock_stage/rf3/shuffle_control_rf3cof_ligand.sdf.ligand.pdb
 OpenBabel10092620413D

 20 20  0  0  1  0  0  0  0  0999 V2000
    7.0680  -11.8550    6.4130 C   0  0  0  0  0  0  0  0  0  0  0  0
    7.7950  -11.5890    5.1750 C   0  0  0  0  0  0  0  0  0  0  0  0
    7.7330  -10.1920    4.7180 C   0  0  0  0  0  0  0  0  0  0  0  0
    8.5770   -9.9400    3.5460 C   0  0  0  0  0  0  0  0  0  0  0  0
    8.6150   -8.4710    3.2020 C   0  0  1  0  0  0  0  0  0  0  0  0
   10.0210   -8.0890    2.7530 C   0  0  0  0  0  0  0  0  0  0  0  0
   10.4560   -6.8180    3.3510 C   0  0  0  0  0  0  0  0  0  0  0  0
    7.7260   -8.3220    2.1280 O   0  0  0  0  0  0  0  0  0  0  0  0
    7.0080   -7.1530    2.1110 C   0  0  0  0  0  0  0  0  0  0  0  0
    7.0430   -6.3700    2.9900 O   0  0  0  0  0  0  0  0  0  0  0  0
    6.2360   -7.0040    0.8870 C   0  0  0  0  0  0  0  0  0  0  0  0
    5.4260   -5.8320    0.8650 C   0  0  0  0  0  0  0  0  0  0  0  0
    4.5800   -5.6000   -0.3130 C   0  0  0  0  0  0  0  0  0  0  0  0
    5.0890   -5.7360   -1.5770 C   0  0  0  0  0  0  0  0  0  0  0  0
    4.2770   -5.5090   -2.6610 C   0  0  0  0  0  0  0  0  0  0  0  0
    2.9740   -5.1500   -2.4880 C   0  0  0  0  0  0  0  0  0  0  0  0
    2.1700   -4.9920   -3.5840 O   0  0  0  0  0  0  0  0  0  0  0  0
    2.0020   -3.7180   -4.1060 C   0  0  0  0  0  0  0  0  0  0  0  0
    2.4870   -4.9890   -1.2180 C   0  0  0  0  0  0  0  0  0  0  0  0
    3.2830   -5.2120   -0.1280 C   0  0  0  0  0  0  0  0  0  0  0  0
  2  1  1  0  0  0  0
  3  2  1  0  0  0  0
  4  3  1  0  0  0  0
  5  6  1  6  0  0  0
  5  4  1  0  0  0  0
  6  7  1  0  0  0  0
  8  5  1  0  0  0  0
  9  8  1  0  0  0  0
  9 10  2  0  0  0  0
 11  9  1  0  0  0  0
 12 11  1  0  0  0  0
 13 20  1  0  0  0  0
 13 12  1  0  0  0  0
 14 13  2  0  0  0  0
 15 16  2  0  0  0  0
 15 14  1  0  0  0  0
 16 19  1  0  0  0  0
 17 16  1  0  0  0  0
 18 17  1  0  0  0  0
 19 20  2  0  0  0  0
M  END
$$$$
