/Users/cafierom/python_mac/peptidebuilder/runs/octinoxate/folds/dock_stage/rf3/shuffle_control_esm0_rf3cof_ligand.sdf.ligand.pdb
 OpenBabel10092620423D

 20 20  0  0  1  0  0  0  0  0999 V2000
    6.8330    0.7090   -7.0940 C   0  0  0  0  0  0  0  0  0  0  0  0
    5.4290    0.3270   -7.2530 C   0  0  0  0  0  0  0  0  0  0  0  0
    4.6050    0.7280   -6.0960 C   0  0  0  0  0  0  0  0  0  0  0  0
    3.1720    0.3580   -6.2800 C   0  0  0  0  0  0  0  0  0  0  0  0
    2.3350    0.6270   -5.0800 C   0  0  2  0  0  0  0  0  0  0  0  0
    0.9460    0.0580   -5.3240 C   0  0  0  0  0  0  0  0  0  0  0  0
    0.0760    0.1590   -4.1220 C   0  0  0  0  0  0  0  0  0  0  0  0
    2.2330    2.0220   -4.8650 O   0  0  0  0  0  0  0  0  0  0  0  0
    2.8990    2.5790   -3.8220 C   0  0  0  0  0  0  0  0  0  0  0  0
    3.5860    1.9820   -3.0760 O   0  0  0  0  0  0  0  0  0  0  0  0
    2.6680    4.0560   -3.7200 C   0  0  0  0  0  0  0  0  0  0  0  0
    3.5020    4.7540   -2.7220 C   0  0  0  0  0  0  0  0  0  0  0  0
    3.3530    6.2250   -2.7630 C   0  0  0  0  0  0  0  0  0  0  0  0
    2.0730    6.8080   -2.7730 C   0  0  0  0  0  0  0  0  0  0  0  0
    1.9560    8.1780   -2.8320 C   0  0  0  0  0  0  0  0  0  0  0  0
    3.0810    8.9560   -2.8860 C   0  0  0  0  0  0  0  0  0  0  0  0
    3.0240   10.3300   -2.9480 O   0  0  0  0  0  0  0  0  0  0  0  0
    1.8150   10.9380   -3.2290 C   0  0  0  0  0  0  0  0  0  0  0  0
    4.3340    8.3680   -2.8720 C   0  0  0  0  0  0  0  0  0  0  0  0
    4.4740    7.0110   -2.8150 C   0  0  0  0  0  0  0  0  0  0  0  0
  2  1  1  0  0  0  0
  2  3  1  0  0  0  0
  4  3  1  0  0  0  0
  5  4  1  6  0  0  0
  5  8  1  0  0  0  0
  6  5  1  0  0  0  0
  6  7  1  0  0  0  0
  8  9  1  0  0  0  0
  9 11  1  0  0  0  0
  9 10  2  0  0  0  0
 11 12  1  0  0  0  0
 13 12  1  0  0  0  0
 14 13  1  0  0  0  0
 15 14  2  0  0  0  0
 16 19  2  0  0  0  0
 16 15  1  0  0  0  0
 17 16  1  0  0  0  0
 18 17  1  0  0  0  0
 19 20  1  0  0  0  0
 20 13  2  0  0  0  0
M  END
$$$$
