shuffle_control_esm0_ligand
     RDKit          3D

 44 44  0  0  0  0  0  0  0  0999 V2000
    6.6264    0.5135   -6.9428 C   0  0  0  0  0  0  0  0  0  0  0  0
    5.9078    1.8026   -6.7476 C   0  0  0  0  0  0  0  0  0  0  0  0
    4.4981    1.7338   -6.2437 C   0  0  0  0  0  0  0  0  0  0  0  0
    4.0969    0.5039   -5.5049 C   0  0  0  0  0  0  0  0  0  0  0  0
    2.7563    0.5776   -4.8501 C   0  0  1  0  0  0  0  0  0  0  0  0
    2.6540   -0.5751   -3.8680 C   0  0  0  0  0  0  0  0  0  0  0  0
    1.3149   -0.7836   -3.2216 C   0  0  0  0  0  0  0  0  0  0  0  0
    2.6483    1.8480   -4.2156 O   0  0  0  0  0  0  0  0  0  0  0  0
    1.5537    2.6378   -4.3451 C   0  0  0  0  0  0  0  0  0  0  0  0
    0.5743    2.2637   -4.9081 O   0  0  0  0  0  0  0  0  0  0  0  0
    1.6973    3.9951   -3.7352 C   0  0  0  0  0  0  0  0  0  0  0  0
    2.2936    4.9743   -4.3921 C   0  0  0  0  0  0  0  0  0  0  0  0
    2.5824    6.3115   -3.7925 C   0  0  0  0  0  0  0  0  0  0  0  0
    3.8510    6.8191   -3.9092 C   0  0  0  0  0  0  0  0  0  0  0  0
    4.1826    8.0436   -3.3465 C   0  0  0  0  0  0  0  0  0  0  0  0
    3.2320    8.7804   -2.6652 C   0  0  0  0  0  0  0  0  0  0  0  0
    3.5162    9.9692   -2.0933 O   0  0  0  0  0  0  0  0  0  0  0  0
    4.8576   10.4537   -2.1105 C   0  0  0  0  0  0  0  0  0  0  0  0
    1.9391    8.2684   -2.5535 C   0  0  0  0  0  0  0  0  0  0  0  0
    1.6116    7.0355   -3.1266 C   0  0  0  0  0  0  0  0  0  0  0  0
    6.1763   -0.2580   -6.3008 H   0  0  0  0  0  0  0  0  0  0  0  0
    6.5477    0.2057   -7.9959 H   0  0  0  0  0  0  0  0  0  0  0  0
    7.6859    0.6403   -6.6759 H   0  0  0  0  0  0  0  0  0  0  0  0
    6.4876    2.3983   -6.0271 H   0  0  0  0  0  0  0  0  0  0  0  0
    5.8270    2.2364   -7.7551 H   0  0  0  0  0  0  0  0  0  0  0  0
    4.3460    2.5893   -5.5691 H   0  0  0  0  0  0  0  0  0  0  0  0
    3.8736    1.7363   -7.1494 H   0  0  0  0  0  0  0  0  0  0  0  0
    4.0847   -0.3346   -6.2168 H   0  0  0  0  0  0  0  0  0  0  0  0
    4.8308    0.3746   -4.6958 H   0  0  0  0  0  0  0  0  0  0  0  0
    1.9282    0.4863   -5.5684 H   0  0  0  0  0  0  0  0  0  0  0  0
    2.9129   -1.4983   -4.4071 H   0  0  0  0  0  0  0  0  0  0  0  0
    3.3392   -0.3208   -3.0459 H   0  0  0  0  0  0  0  0  0  0  0  0
    1.4301   -0.7726   -2.1277 H   0  0  0  0  0  0  0  0  0  0  0  0
    0.6311    0.0223   -3.5264 H   0  0  0  0  0  0  0  0  0  0  0  0
    0.9024   -1.7534   -3.5371 H   0  0  0  0  0  0  0  0  0  0  0  0
    1.3012    4.1812   -2.7260 H   0  0  0  0  0  0  0  0  0  0  0  0
    2.5932    4.7952   -5.4353 H   0  0  0  0  0  0  0  0  0  0  0  0
    4.6159    6.2481   -4.4559 H   0  0  0  0  0  0  0  0  0  0  0  0
    5.2079    8.4302   -3.4434 H   0  0  0  0  0  0  0  0  0  0  0  0
    5.1411   10.7843   -1.1004 H   0  0  0  0  0  0  0  0  0  0  0  0
    5.5337    9.6495   -2.4364 H   0  0  0  0  0  0  0  0  0  0  0  0
    4.9324   11.3009   -2.8081 H   0  0  0  0  0  0  0  0  0  0  0  0
    1.1712    8.8389   -2.0104 H   0  0  0  0  0  0  0  0  0  0  0  0
    0.5867    6.6439   -3.0477 H   0  0  0  0  0  0  0  0  0  0  0  0
  2  1  1  0
  3  2  1  0
  4  3  1  0
  5  4  1  0
  6  5  1  0
  7  6  1  0
  8  5  1  0
  9  8  1  0
 10  9  2  0
 11  9  1  0
 12 11  2  3
 13 12  1  0
 14 13  1  0
 15 14  2  0
 16 15  1  0
 17 16  1  0
 18 17  1  0
 19 16  2  0
 20 13  2  0
 20 19  1  0
  1 21  1  0
  1 22  1  0
  1 23  1  0
  2 24  1  0
  2 25  1  0
  3 26  1  0
  3 27  1  0
  4 28  1  0
  4 29  1  0
  5 30  1  6
  6 31  1  0
  6 32  1  0
  7 33  1  0
  7 34  1  0
  7 35  1  0
 11 36  1  0
 12 37  1  0
 14 38  1  0
 15 39  1  0
 18 40  1  0
 18 41  1  0
 18 42  1  0
 19 43  1  0
 20 44  1  0
M  END
$$$$
