s3_esm2_f4_ligand
     RDKit          3D

 44 44  0  0  0  0  0  0  0  0999 V2000
   -1.7116    2.6208  -11.6232 C   0  0  0  0  0  0  0  0  0  0  0  0
   -0.4056    3.2611  -11.1422 C   0  0  0  0  0  0  0  0  0  0  0  0
   -0.2975    3.1792   -9.6402 C   0  0  0  0  0  0  0  0  0  0  0  0
    0.9493    3.8612   -9.1512 C   0  0  0  0  0  0  0  0  0  0  0  0
    0.9307    4.0429   -7.6399 C   0  0  2  0  0  0  0  0  0  0  0  0
    1.4844    5.4035   -7.2889 C   0  0  0  0  0  0  0  0  0  0  0  0
    2.3725    5.4207   -6.0803 C   0  0  0  0  0  0  0  0  0  0  0  0
    1.7140    3.0281   -7.0389 O   0  0  0  0  0  0  0  0  0  0  0  0
    1.0943    2.0341   -6.3513 C   0  0  0  0  0  0  0  0  0  0  0  0
   -0.0879    1.8422   -6.4411 O   0  0  0  0  0  0  0  0  0  0  0  0
    1.9661    1.2472   -5.4841 C   0  0  0  0  0  0  0  0  0  0  0  0
    3.2864    1.3028   -5.6119 C   0  0  0  0  0  0  0  0  0  0  0  0
    4.2241    0.6990   -4.6403 C   0  0  0  0  0  0  0  0  0  0  0  0
    3.7920    0.2610   -3.4049 C   0  0  0  0  0  0  0  0  0  0  0  0
    4.6980   -0.2682   -2.5041 C   0  0  0  0  0  0  0  0  0  0  0  0
    6.0211   -0.3627   -2.8167 C   0  0  0  0  0  0  0  0  0  0  0  0
    6.8770   -0.8756   -1.9061 O   0  0  0  0  0  0  0  0  0  0  0  0
    8.2728   -0.6763   -2.0583 C   0  0  0  0  0  0  0  0  0  0  0  0
    6.4537    0.0678   -4.0541 C   0  0  0  0  0  0  0  0  0  0  0  0
    5.5523    0.5943   -4.9561 C   0  0  0  0  0  0  0  0  0  0  0  0
   -1.4907    1.8837  -12.4094 H   0  0  0  0  0  0  0  0  0  0  0  0
   -2.2068    2.1189  -10.7788 H   0  0  0  0  0  0  0  0  0  0  0  0
   -2.3750    3.3999  -12.0269 H   0  0  0  0  0  0  0  0  0  0  0  0
    0.4452    2.7315  -11.5954 H   0  0  0  0  0  0  0  0  0  0  0  0
   -0.3976    4.3194  -11.4417 H   0  0  0  0  0  0  0  0  0  0  0  0
   -1.1744    3.6669   -9.1894 H   0  0  0  0  0  0  0  0  0  0  0  0
   -0.2537    2.1192   -9.3496 H   0  0  0  0  0  0  0  0  0  0  0  0
    1.8219    3.2509   -9.4270 H   0  0  0  0  0  0  0  0  0  0  0  0
    1.0036    4.8560   -9.6175 H   0  0  0  0  0  0  0  0  0  0  0  0
   -0.1020    3.9709   -7.2677 H   0  0  0  0  0  0  0  0  0  0  0  0
    2.0659    5.7699   -8.1478 H   0  0  0  0  0  0  0  0  0  0  0  0
    0.6202    6.0413   -7.0514 H   0  0  0  0  0  0  0  0  0  0  0  0
    3.3322    4.9415   -6.3237 H   0  0  0  0  0  0  0  0  0  0  0  0
    2.5504    6.4613   -5.7707 H   0  0  0  0  0  0  0  0  0  0  0  0
    1.8863    4.8722   -5.2601 H   0  0  0  0  0  0  0  0  0  0  0  0
    1.5227    0.5991   -4.7136 H   0  0  0  0  0  0  0  0  0  0  0  0
    3.7045    1.8248   -6.4854 H   0  0  0  0  0  0  0  0  0  0  0  0
    2.7277    0.3328   -3.1370 H   0  0  0  0  0  0  0  0  0  0  0  0
    4.3459   -0.6176   -1.5223 H   0  0  0  0  0  0  0  0  0  0  0  0
    8.6689   -1.3985   -2.7876 H   0  0  0  0  0  0  0  0  0  0  0  0
    8.4603    0.3468   -2.4165 H   0  0  0  0  0  0  0  0  0  0  0  0
    8.7719   -0.8227   -1.0890 H   0  0  0  0  0  0  0  0  0  0  0  0
    7.5179   -0.0088   -4.3216 H   0  0  0  0  0  0  0  0  0  0  0  0
    5.9049    0.9342   -5.9410 H   0  0  0  0  0  0  0  0  0  0  0  0
  2  1  1  0
  3  2  1  0
  4  3  1  0
  5  4  1  0
  6  5  1  0
  7  6  1  0
  8  5  1  0
  9  8  1  0
 10  9  2  0
 11  9  1  0
 12 11  2  3
 13 12  1  0
 14 13  1  0
 15 14  2  0
 16 15  1  0
 17 16  1  0
 18 17  1  0
 19 16  2  0
 20 19  1  0
 20 13  2  0
  1 21  1  0
  1 22  1  0
  1 23  1  0
  2 24  1  0
  2 25  1  0
  3 26  1  0
  3 27  1  0
  4 28  1  0
  4 29  1  0
  5 30  1  1
  6 31  1  0
  6 32  1  0
  7 33  1  0
  7 34  1  0
  7 35  1  0
 11 36  1  0
 12 37  1  0
 14 38  1  0
 15 39  1  0
 18 40  1  0
 18 41  1  0
 18 42  1  0
 19 43  1  0
 20 44  1  0
M  END
$$$$
