bg33_3_ligand
     RDKit          3D

 44 44  0  0  0  0  0  0  0  0999 V2000
    0.7945  -11.7339   -5.5759 C   0  0  0  0  0  0  0  0  0  0  0  0
    0.1533  -12.3098   -4.2946 C   0  0  0  0  0  0  0  0  0  0  0  0
   -0.8242  -11.3121   -3.7603 C   0  0  0  0  0  0  0  0  0  0  0  0
   -1.1998  -11.5680   -2.2841 C   0  0  0  0  0  0  0  0  0  0  0  0
   -1.9508  -10.3468   -1.7847 C   0  0  1  0  0  0  0  0  0  0  0  0
   -3.3869  -10.5872   -1.8332 C   0  0  0  0  0  0  0  0  0  0  0  0
   -3.9971  -10.8333   -0.4860 C   0  0  0  0  0  0  0  0  0  0  0  0
   -1.5778  -10.0364   -0.4046 O   0  0  0  0  0  0  0  0  0  0  0  0
   -0.5653   -9.3000   -0.2269 C   0  0  0  0  0  0  0  0  0  0  0  0
    0.2008   -9.1778   -1.1543 O   0  0  0  0  0  0  0  0  0  0  0  0
   -0.3073   -8.6069    1.1526 C   0  0  0  0  0  0  0  0  0  0  0  0
   -0.8125   -7.3701    1.3641 C   0  0  0  0  0  0  0  0  0  0  0  0
   -0.5370   -6.6265    2.5666 C   0  0  0  0  0  0  0  0  0  0  0  0
    0.7166   -6.1157    2.8193 C   0  0  0  0  0  0  0  0  0  0  0  0
    0.9867   -5.3738    3.9118 C   0  0  0  0  0  0  0  0  0  0  0  0
   -0.0341   -5.1286    4.8013 C   0  0  0  0  0  0  0  0  0  0  0  0
    0.1612   -4.4279    5.9388 O   0  0  0  0  0  0  0  0  0  0  0  0
    1.2707   -3.5466    5.9357 C   0  0  0  0  0  0  0  0  0  0  0  0
   -1.2761   -5.6471    4.6018 C   0  0  0  0  0  0  0  0  0  0  0  0
   -1.5287   -6.3942    3.4714 C   0  0  0  0  0  0  0  0  0  0  0  0
    1.1146  -10.6977   -5.3920 H   0  0  0  0  0  0  0  0  0  0  0  0
    1.6669  -12.3430   -5.8551 H   0  0  0  0  0  0  0  0  0  0  0  0
    0.0588  -11.7506   -6.3936 H   0  0  0  0  0  0  0  0  0  0  0  0
   -0.3678  -13.2492   -4.5312 H   0  0  0  0  0  0  0  0  0  0  0  0
    0.9311  -12.5130   -3.5439 H   0  0  0  0  0  0  0  0  0  0  0  0
   -0.3807  -10.3088   -3.8407 H   0  0  0  0  0  0  0  0  0  0  0  0
   -1.7452  -11.4021   -4.3551 H   0  0  0  0  0  0  0  0  0  0  0  0
   -1.8402  -12.4593   -2.2088 H   0  0  0  0  0  0  0  0  0  0  0  0
   -0.2972  -11.7411   -1.6797 H   0  0  0  0  0  0  0  0  0  0  0  0
   -1.6866   -9.4998   -2.4349 H   0  0  0  0  0  0  0  0  0  0  0  0
   -3.8725   -9.7073   -2.2799 H   0  0  0  0  0  0  0  0  0  0  0  0
   -3.5429  -11.4977   -2.4305 H   0  0  0  0  0  0  0  0  0  0  0  0
   -3.8791   -9.9362    0.1395 H   0  0  0  0  0  0  0  0  0  0  0  0
   -5.0672  -11.0599   -0.6040 H   0  0  0  0  0  0  0  0  0  0  0  0
   -3.4930  -11.6846   -0.0050 H   0  0  0  0  0  0  0  0  0  0  0  0
    0.2741   -9.1160    1.9354 H   0  0  0  0  0  0  0  0  0  0  0  0
   -1.4540   -6.9179    0.5934 H   0  0  0  0  0  0  0  0  0  0  0  0
    1.5266   -6.3206    2.1039 H   0  0  0  0  0  0  0  0  0  0  0  0
    1.9966   -4.9748    4.0875 H   0  0  0  0  0  0  0  0  0  0  0  0
    1.0830   -2.7184    6.6348 H   0  0  0  0  0  0  0  0  0  0  0  0
    2.1733   -4.0924    6.2476 H   0  0  0  0  0  0  0  0  0  0  0  0
    1.4170   -3.1448    4.9221 H   0  0  0  0  0  0  0  0  0  0  0  0
   -2.0739   -5.4711    5.3383 H   0  0  0  0  0  0  0  0  0  0  0  0
   -2.5347   -6.8044    3.2991 H   0  0  0  0  0  0  0  0  0  0  0  0
  2  1  1  0
  3  2  1  0
  4  3  1  0
  5  4  1  0
  6  5  1  0
  7  6  1  0
  8  5  1  0
  9  8  1  0
 10  9  2  0
 11  9  1  0
 12 11  2  3
 13 12  1  0
 14 13  1  0
 15 14  2  0
 16 15  1  0
 17 16  1  0
 18 17  1  0
 19 16  2  0
 20 19  1  0
 20 13  2  0
  1 21  1  0
  1 22  1  0
  1 23  1  0
  2 24  1  0
  2 25  1  0
  3 26  1  0
  3 27  1  0
  4 28  1  0
  4 29  1  0
  5 30  1  6
  6 31  1  0
  6 32  1  0
  7 33  1  0
  7 34  1  0
  7 35  1  0
 11 36  1  0
 12 37  1  0
 14 38  1  0
 15 39  1  0
 18 40  1  0
 18 41  1  0
 18 42  1  0
 19 43  1  0
 20 44  1  0
M  END
$$$$
