bg33_3_ligand
 OpenBabel10092621163D

 20 20  0  0  1  0  0  0  0  0999 V2000
    7.9120   -7.5650   -2.6080 C   0  0  0  0  0  0  0  0  0  0  0  0
    8.4350   -8.3570   -3.3570 O   0  0  0  0  0  0  0  0  0  0  0  0
    6.3620   -7.3500   -2.5850 C   0  0  0  0  0  3  0  0  0  0  0  0
    5.5650   -8.3960   -2.2660 C   0  0  0  0  0  3  0  0  0  0  0  0
    4.1280   -8.3060   -2.3180 C   0  0  0  0  0  0  0  0  0  0  0  0
    3.5010   -7.2780   -2.9860 C   0  0  0  0  0  3  0  0  0  0  0  0
    2.1600   -7.1990   -3.0930 C   0  0  0  0  0  3  0  0  0  0  0  0
    1.4010   -8.1850   -2.5050 C   0  0  0  0  0  0  0  0  0  0  0  0
    1.9850   -9.1960   -1.8070 C   0  0  0  0  0  3  0  0  0  0  0  0
    3.3600   -9.2590   -1.7220 C   0  0  0  0  0  3  0  0  0  0  0  0
    0.0510   -8.1610   -2.5320 O   0  0  0  0  0  0  0  0  0  0  0  0
   -0.5740   -9.2980   -3.1020 C   0  0  0  0  0  1  0  0  0  0  0  0
    8.6730   -6.8900   -1.8550 O   0  0  0  0  0  0  0  0  0  0  0  0
    8.1870   -6.5790   -0.5110 C   0  0  2  0  0  3  0  0  0  0  0  0
    8.3500   -5.1500   -0.2800 C   0  0  0  0  0  2  0  0  0  0  0  0
    9.7830   -4.7180   -0.1970 C   0  0  0  0  0  1  0  0  0  0  0  0
    8.9520   -7.3680    0.5350 C   0  0  0  0  0  2  0  0  0  0  0  0
    7.9220   -7.9350    1.5360 C   0  0  0  0  0  2  0  0  0  0  0  0
    5.6090   -8.8000    1.5430 C   0  0  0  0  0  1  0  0  0  0  0  0
    7.0160   -8.9570    0.9260 C   0  0  0  0  0  2  0  0  0  0  0  0
  1  3  1  0  0  0  0
  1 13  1  0  0  0  0
  2  1  2  0  0  0  0
  3  4  2  0  0  0  0
  5  4  1  0  0  0  0
  5 10  1  0  0  0  0
  6  5  2  0  0  0  0
  7  6  1  0  0  0  0
  7  8  2  0  0  0  0
  8  9  1  0  0  0  0
  9 10  2  0  0  0  0
 11  8  1  0  0  0  0
 12 11  1  0  0  0  0
 13 14  1  0  0  0  0
 14 15  1  1  0  0  0
 14 17  1  0  0  0  0
 15 16  1  0  0  0  0
 17 18  1  0  0  0  0
 20 18  1  0  0  0  0
 20 19  1  0  0  0  0
M  END
>  <MODEL>
1

>  <REMARK>
 VINA RESULT:      -4.1      0.000      0.000
  Name = bg33_3_ligand
  12 active torsions:
  status: ('A' for Active; 'I' for Inactive)
    1  A    between atoms: C_1  and  C_2
    2  A    between atoms: C_2  and  C_3
    3  A    between atoms: C_3  and  C_4
    4  A    between atoms: C_4  and  C_5
    5  A    between atoms: C_5  and  C_6
    6  A    between atoms: C_5  and  O_8
    7  A    between atoms: C_6  and  C_7
    8  A    between atoms: O_8  and  C_9
    9  A    between atoms: C_9  and  C_11
   10  A    between atoms: C_12  and  C_13
   11  A    between atoms: C_16  and  O_17
   12  A    between atoms: O_17  and  C_18
                            x       y       z     vdW  Elec       q    Type
                         _______ _______ _______ _____ _____    ______ ____

>  <TORSDO>
F 9

$$$$
bg33_3_ligand
 OpenBabel10092621163D

 20 20  0  0  1  0  0  0  0  0999 V2000
    6.1700   -9.5680   -0.6930 C   0  0  0  0  0  0  0  0  0  0  0  0
    6.7530  -10.5730   -0.3600 O   0  0  0  0  0  0  0  0  0  0  0  0
    4.8790   -9.6190   -1.5770 C   0  0  0  0  0  3  0  0  0  0  0  0
    3.7160   -9.1650   -1.0560 C   0  0  0  0  0  3  0  0  0  0  0  0
    2.4680   -9.2680   -1.7680 C   0  0  0  0  0  0  0  0  0  0  0  0
    1.9550  -10.4920   -2.1360 C   0  0  0  0  0  3  0  0  0  0  0  0
    0.7650  -10.6180   -2.7570 C   0  0  0  0  0  3  0  0  0  0  0  0
    0.0490   -9.4750   -3.0300 C   0  0  0  0  0  0  0  0  0  0  0  0
    0.5410   -8.2470   -2.7120 C   0  0  0  0  0  3  0  0  0  0  0  0
    1.7550   -8.1460   -2.0680 C   0  0  0  0  0  3  0  0  0  0  0  0
   -1.1330   -9.5100   -3.6830 O   0  0  0  0  0  0  0  0  0  0  0  0
   -1.0540   -9.5020   -5.0980 C   0  0  0  0  0  1  0  0  0  0  0  0
    6.6600   -8.4630   -0.3210 O   0  0  0  0  0  0  0  0  0  0  0  0
    7.6910   -8.4980    0.7160 C   0  0  2  0  0  3  0  0  0  0  0  0
    7.0790   -8.1370    1.9880 C   0  0  0  0  0  2  0  0  0  0  0  0
    7.8590   -8.6060    3.1800 C   0  0  0  0  0  1  0  0  0  0  0  0
    8.8180   -7.5360    0.3870 C   0  0  0  0  0  2  0  0  0  0  0  0
    8.2960   -6.5570   -0.6870 C   0  0  0  0  0  2  0  0  0  0  0  0
    9.8180   -4.6750   -0.2010 C   0  0  0  0  0  1  0  0  0  0  0  0
    8.3430   -5.1280   -0.2460 C   0  0  0  0  0  2  0  0  0  0  0  0
  1  2  2  0  0  0  0
  1 13  1  0  0  0  0
  3  4  2  0  0  0  0
  3  1  1  0  0  0  0
  5  4  1  0  0  0  0
  6  5  2  0  0  0  0
  7  6  1  0  0  0  0
  8  7  2  0  0  0  0
  8  9  1  0  0  0  0
  9 10  2  0  0  0  0
 10  5  1  0  0  0  0
 11  8  1  0  0  0  0
 12 11  1  0  0  0  0
 13 14  1  0  0  0  0
 14 17  1  6  0  0  0
 14 15  1  0  0  0  0
 15 16  1  0  0  0  0
 18 20  1  0  0  0  0
 18 17  1  0  0  0  0
 20 19  1  0  0  0  0
M  END
>  <MODEL>
2

>  <REMARK>
 VINA RESULT:      -4.0      1.680      3.283
  Name = bg33_3_ligand
  12 active torsions:
  status: ('A' for Active; 'I' for Inactive)
    1  A    between atoms: C_1  and  C_2
    2  A    between atoms: C_2  and  C_3
    3  A    between atoms: C_3  and  C_4
    4  A    between atoms: C_4  and  C_5
    5  A    between atoms: C_5  and  C_6
    6  A    between atoms: C_5  and  O_8
    7  A    between atoms: C_6  and  C_7
    8  A    between atoms: O_8  and  C_9
    9  A    between atoms: C_9  and  C_11
   10  A    between atoms: C_12  and  C_13
   11  A    between atoms: C_16  and  O_17
   12  A    between atoms: O_17  and  C_18
                            x       y       z     vdW  Elec       q    Type
                         _______ _______ _______ _____ _____    ______ ____

>  <TORSDO>
F 9

$$$$
bg33_3_ligand
 OpenBabel10092621163D

 20 20  0  0  1  0  0  0  0  0999 V2000
    8.2670   -8.9680   -1.8840 C   0  0  0  0  0  0  0  0  0  0  0  0
    8.6740   -9.9500   -2.4590 O   0  0  0  0  0  0  0  0  0  0  0  0
    6.7670   -8.5270   -1.9650 C   0  0  0  0  0  3  0  0  0  0  0  0
    5.8040   -9.4700   -1.8470 C   0  0  0  0  0  3  0  0  0  0  0  0
    4.4070   -9.1610   -2.0080 C   0  0  0  0  0  0  0  0  0  0  0  0
    3.4440  -10.1420   -1.9250 C   0  0  0  0  0  3  0  0  0  0  0  0
    2.1270   -9.8710   -2.0210 C   0  0  0  0  0  3  0  0  0  0  0  0
    1.7440   -8.5630   -2.2120 C   0  0  0  0  0  0  0  0  0  0  0  0
    2.6690   -7.5730   -2.3340 C   0  0  0  0  0  3  0  0  0  0  0  0
    4.0090   -7.8750   -2.2220 C   0  0  0  0  0  3  0  0  0  0  0  0
    0.4480   -8.2110   -2.3560 O   0  0  0  0  0  0  0  0  0  0  0  0
   -0.3580   -9.1180   -3.0880 C   0  0  0  0  0  1  0  0  0  0  0  0
    9.1090   -8.2890   -1.2300 O   0  0  0  0  0  0  0  0  0  0  0  0
    8.6150   -7.5250   -0.0840 C   0  0  2  0  0  3  0  0  0  0  0  0
    9.1610   -6.1760   -0.1580 C   0  0  0  0  0  2  0  0  0  0  0  0
    8.1270   -5.1290   -0.4440 C   0  0  0  0  0  1  0  0  0  0  0  0
    9.0260   -8.1840    1.2200 C   0  0  0  0  0  2  0  0  0  0  0  0
    7.7700   -8.2660    2.1160 C   0  0  0  0  0  2  0  0  0  0  0  0
    5.4150   -8.8100    1.6130 C   0  0  0  0  0  1  0  0  0  0  0  0
    6.8470   -9.3770    1.7260 C   0  0  0  0  0  2  0  0  0  0  0  0
  1 13  1  0  0  0  0
  2  1  2  0  0  0  0
  3  1  1  0  0  0  0
  3  4  2  0  0  0  0
  5  6  1  0  0  0  0
  5  4  1  0  0  0  0
  7  6  2  0  0  0  0
  8  7  1  0  0  0  0
  9 10  1  0  0  0  0
  9  8  2  0  0  0  0
 10  5  2  0  0  0  0
 11  8  1  0  0  0  0
 12 11  1  0  0  0  0
 13 14  1  0  0  0  0
 14 15  1  1  0  0  0
 14 17  1  0  0  0  0
 16 15  1  0  0  0  0
 17 18  1  0  0  0  0
 19 20  1  0  0  0  0
 20 18  1  0  0  0  0
M  END
>  <MODEL>
3

>  <REMARK>
 VINA RESULT:      -3.9      1.047      1.507
  Name = bg33_3_ligand
  12 active torsions:
  status: ('A' for Active; 'I' for Inactive)
    1  A    between atoms: C_1  and  C_2
    2  A    between atoms: C_2  and  C_3
    3  A    between atoms: C_3  and  C_4
    4  A    between atoms: C_4  and  C_5
    5  A    between atoms: C_5  and  C_6
    6  A    between atoms: C_5  and  O_8
    7  A    between atoms: C_6  and  C_7
    8  A    between atoms: O_8  and  C_9
    9  A    between atoms: C_9  and  C_11
   10  A    between atoms: C_12  and  C_13
   11  A    between atoms: C_16  and  O_17
   12  A    between atoms: O_17  and  C_18
                            x       y       z     vdW  Elec       q    Type
                         _______ _______ _______ _____ _____    ______ ____

>  <TORSDO>
F 9

$$$$
bg33_3_ligand
 OpenBabel10092621163D

 20 20  0  0  1  0  0  0  0  0999 V2000
    5.3880   -9.2570   -0.2770 C   0  0  0  0  0  0  0  0  0  0  0  0
    5.7810   -9.2210    0.8650 O   0  0  0  0  0  0  0  0  0  0  0  0
    3.8610   -9.2580   -0.6240 C   0  0  0  0  0  3  0  0  0  0  0  0
    3.4630   -9.7850   -1.8050 C   0  0  0  0  0  3  0  0  0  0  0  0
    2.0910   -9.7350   -2.2400 C   0  0  0  0  0  0  0  0  0  0  0  0
    1.3550  -10.8870   -2.4100 C   0  0  0  0  0  3  0  0  0  0  0  0
    0.0540  -10.8660   -2.7660 C   0  0  0  0  0  3  0  0  0  0  0  0
   -0.5450   -9.6440   -2.9690 C   0  0  0  0  0  0  0  0  0  0  0  0
    0.1610   -8.4880   -2.8450 C   0  0  0  0  0  3  0  0  0  0  0  0
    1.4860   -8.5360   -2.4690 C   0  0  0  0  0  3  0  0  0  0  0  0
   -1.8320   -9.5350   -3.3650 O   0  0  0  0  0  0  0  0  0  0  0  0
   -2.0840   -9.8400   -4.7250 C   0  0  0  0  0  1  0  0  0  0  0  0
    6.2620   -9.3210   -1.1900 O   0  0  0  0  0  0  0  0  0  0  0  0
    6.8960   -8.0690   -1.6040 C   0  0  2  0  0  3  0  0  0  0  0  0
    6.4790   -7.7680   -2.9670 C   0  0  0  0  0  2  0  0  0  0  0  0
    5.5060   -6.6320   -3.0560 C   0  0  0  0  0  1  0  0  0  0  0  0
    8.4080   -8.1830   -1.5330 C   0  0  0  0  0  2  0  0  0  0  0  0
    8.8590   -7.5670   -0.1900 C   0  0  0  0  0  2  0  0  0  0  0  0
    9.0610   -5.1070   -0.2380 C   0  0  0  0  0  1  0  0  0  0  0  0
    8.1460   -6.2930    0.1360 C   0  0  0  0  0  2  0  0  0  0  0  0
  1  2  2  0  0  0  0
  3  1  1  0  0  0  0
  4  3  2  0  0  0  0
  5  4  1  0  0  0  0
  6  5  1  0  0  0  0
  7  6  2  0  0  0  0
  8  9  2  0  0  0  0
  8  7  1  0  0  0  0
  9 10  1  0  0  0  0
 10  5  2  0  0  0  0
 11  8  1  0  0  0  0
 12 11  1  0  0  0  0
 13  1  1  0  0  0  0
 14 15  1  6  0  0  0
 14 17  1  0  0  0  0
 14 13  1  0  0  0  0
 16 15  1  0  0  0  0
 17 18  1  0  0  0  0
 18 20  1  0  0  0  0
 19 20  1  0  0  0  0
M  END
>  <MODEL>
4

>  <REMARK>
 VINA RESULT:      -3.8      1.785      3.476
  Name = bg33_3_ligand
  12 active torsions:
  status: ('A' for Active; 'I' for Inactive)
    1  A    between atoms: C_1  and  C_2
    2  A    between atoms: C_2  and  C_3
    3  A    between atoms: C_3  and  C_4
    4  A    between atoms: C_4  and  C_5
    5  A    between atoms: C_5  and  C_6
    6  A    between atoms: C_5  and  O_8
    7  A    between atoms: C_6  and  C_7
    8  A    between atoms: O_8  and  C_9
    9  A    between atoms: C_9  and  C_11
   10  A    between atoms: C_12  and  C_13
   11  A    between atoms: C_16  and  O_17
   12  A    between atoms: O_17  and  C_18
                            x       y       z     vdW  Elec       q    Type
                         _______ _______ _______ _____ _____    ______ ____

>  <TORSDO>
F 9

$$$$
bg33_3_ligand
 OpenBabel10092621163D

 20 20  0  0  1  0  0  0  0  0999 V2000
    6.5660   -4.7470   -3.6500 C   0  0  0  0  0  0  0  0  0  0  0  0
    7.5250   -4.8720   -2.9240 O   0  0  0  0  0  0  0  0  0  0  0  0
    5.1460   -5.2630   -3.2370 C   0  0  0  0  0  3  0  0  0  0  0  0
    4.8200   -6.5490   -3.4980 C   0  0  0  0  0  3  0  0  0  0  0  0
    3.5030   -7.0720   -3.2390 C   0  0  0  0  0  0  0  0  0  0  0  0
    3.3030   -8.0760   -2.3170 C   0  0  0  0  0  3  0  0  0  0  0  0
    2.0750   -8.5460   -2.0200 C   0  0  0  0  0  3  0  0  0  0  0  0
    0.9930   -7.9980   -2.6690 C   0  0  0  0  0  0  0  0  0  0  0  0
    1.1560   -7.0300   -3.6100 C   0  0  0  0  0  3  0  0  0  0  0  0
    2.4220   -6.5590   -3.8890 C   0  0  0  0  0  3  0  0  0  0  0  0
   -0.2670   -8.4390   -2.4570 O   0  0  0  0  0  0  0  0  0  0  0  0
   -0.7510   -9.3890   -3.3900 C   0  0  0  0  0  1  0  0  0  0  0  0
    6.7580   -4.2050   -4.7760 O   0  0  0  0  0  0  0  0  0  0  0  0
    5.7400   -3.2710   -5.2560 C   0  0  2  0  0  3  0  0  0  0  0  0
    5.3810   -3.6380   -6.6190 C   0  0  0  0  0  2  0  0  0  0  0  0
    4.1270   -4.4550   -6.7070 C   0  0  0  0  0  1  0  0  0  0  0  0
    6.2560   -1.8440   -5.2190 C   0  0  0  0  0  2  0  0  0  0  0  0
    5.0870   -0.9150   -5.6140 C   0  0  0  0  0  2  0  0  0  0  0  0
    5.4870   -0.0830   -3.3250 C   0  0  0  0  0  1  0  0  0  0  0  0
    4.9740    0.2880   -4.7330 C   0  0  0  0  0  2  0  0  0  0  0  0
  1  3  1  0  0  0  0
  1  2  2  0  0  0  0
  4  5  1  0  0  0  0
  4  3  2  0  0  0  0
  5  6  1  0  0  0  0
  6  7  2  0  0  0  0
  8 11  1  0  0  0  0
  8  7  1  0  0  0  0
  9  8  2  0  0  0  0
 10  9  1  0  0  0  0
 10  5  2  0  0  0  0
 12 11  1  0  0  0  0
 13  1  1  0  0  0  0
 14 15  1  6  0  0  0
 14 17  1  0  0  0  0
 14 13  1  0  0  0  0
 16 15  1  0  0  0  0
 18 17  1  0  0  0  0
 18 20  1  0  0  0  0
 20 19  1  0  0  0  0
M  END
>  <MODEL>
5

>  <REMARK>
 VINA RESULT:      -3.8      3.965      5.700
  Name = bg33_3_ligand
  12 active torsions:
  status: ('A' for Active; 'I' for Inactive)
    1  A    between atoms: C_1  and  C_2
    2  A    between atoms: C_2  and  C_3
    3  A    between atoms: C_3  and  C_4
    4  A    between atoms: C_4  and  C_5
    5  A    between atoms: C_5  and  C_6
    6  A    between atoms: C_5  and  O_8
    7  A    between atoms: C_6  and  C_7
    8  A    between atoms: O_8  and  C_9
    9  A    between atoms: C_9  and  C_11
   10  A    between atoms: C_12  and  C_13
   11  A    between atoms: C_16  and  O_17
   12  A    between atoms: O_17  and  C_18
                            x       y       z     vdW  Elec       q    Type
                         _______ _______ _______ _____ _____    ______ ____

>  <TORSDO>
F 9

$$$$
bg33_3_ligand
 OpenBabel10092621163D

 20 20  0  0  1  0  0  0  0  0999 V2000
    6.9920   -4.9440   -3.3730 C   0  0  0  0  0  0  0  0  0  0  0  0
    7.3180   -4.7250   -4.5160 O   0  0  0  0  0  0  0  0  0  0  0  0
    5.5230   -5.3310   -2.9930 C   0  0  0  0  0  3  0  0  0  0  0  0
    5.0670   -6.5600   -3.3270 C   0  0  0  0  0  3  0  0  0  0  0  0
    3.7010   -6.9560   -3.1000 C   0  0  0  0  0  0  0  0  0  0  0  0
    2.6560   -6.2840   -3.6950 C   0  0  0  0  0  3  0  0  0  0  0  0
    1.3720   -6.6660   -3.5400 C   0  0  0  0  0  3  0  0  0  0  0  0
    1.1100   -7.7650   -2.7550 C   0  0  0  0  0  0  0  0  0  0  0  0
    2.1140   -8.4310   -2.1250 C   0  0  0  0  0  3  0  0  0  0  0  0
    3.4200   -8.0270   -2.3070 C   0  0  0  0  0  3  0  0  0  0  0  0
   -0.1500   -8.1900   -2.5170 O   0  0  0  0  0  0  0  0  0  0  0  0
   -0.5660   -9.3240   -3.2590 C   0  0  0  0  0  1  0  0  0  0  0  0
    7.8830   -4.8230   -2.4830 O   0  0  0  0  0  0  0  0  0  0  0  0
    7.8710   -5.7860   -1.3820 C   0  0  2  0  0  3  0  0  0  0  0  0
    8.4500   -5.1510   -0.2060 C   0  0  0  0  0  2  0  0  0  0  0  0
    9.8430   -4.6420   -0.4270 C   0  0  0  0  0  1  0  0  0  0  0  0
    8.6600   -7.0310   -1.7470 C   0  0  0  0  0  2  0  0  0  0  0  0
    8.2730   -8.1380   -0.7420 C   0  0  0  0  0  2  0  0  0  0  0  0
    6.6770   -9.7870   -1.6520 C   0  0  0  0  0  1  0  0  0  0  0  0
    6.8240   -8.5040   -0.8070 C   0  0  0  0  0  2  0  0  0  0  0  0
  1  3  1  0  0  0  0
  1 13  1  0  0  0  0
  2  1  2  0  0  0  0
  4  5  1  0  0  0  0
  4  3  2  0  0  0  0
  5 10  1  0  0  0  0
  6  7  1  0  0  0  0
  6  5  2  0  0  0  0
  7  8  2  0  0  0  0
  8 11  1  0  0  0  0
  8  9  1  0  0  0  0
 10  9  2  0  0  0  0
 12 11  1  0  0  0  0
 13 14  1  0  0  0  0
 14 17  1  6  0  0  0
 14 15  1  0  0  0  0
 16 15  1  0  0  0  0
 17 18  1  0  0  0  0
 19 20  1  0  0  0  0
 20 18  1  0  0  0  0
M  END
>  <MODEL>
6

>  <REMARK>
 VINA RESULT:      -3.8      1.606      1.947
  Name = bg33_3_ligand
  12 active torsions:
  status: ('A' for Active; 'I' for Inactive)
    1  A    between atoms: C_1  and  C_2
    2  A    between atoms: C_2  and  C_3
    3  A    between atoms: C_3  and  C_4
    4  A    between atoms: C_4  and  C_5
    5  A    between atoms: C_5  and  C_6
    6  A    between atoms: C_5  and  O_8
    7  A    between atoms: C_6  and  C_7
    8  A    between atoms: O_8  and  C_9
    9  A    between atoms: C_9  and  C_11
   10  A    between atoms: C_12  and  C_13
   11  A    between atoms: C_16  and  O_17
   12  A    between atoms: O_17  and  C_18
                            x       y       z     vdW  Elec       q    Type
                         _______ _______ _______ _____ _____    ______ ____

>  <TORSDO>
F 9

$$$$
bg33_3_ligand
 OpenBabel10092621163D

 20 20  0  0  1  0  0  0  0  0999 V2000
    1.2900   -6.6620   -3.5870 C   0  0  0  0  0  0  0  0  0  0  0  0
    0.8570   -6.1590   -4.5960 O   0  0  0  0  0  0  0  0  0  0  0  0
    2.6670   -6.2350   -2.9770 C   0  0  0  0  0  3  0  0  0  0  0  0
    3.7850   -6.3880   -3.7230 C   0  0  0  0  0  3  0  0  0  0  0  0
    5.0980   -6.1110   -3.2000 C   0  0  0  0  0  0  0  0  0  0  0  0
    5.5340   -4.8170   -3.0160 C   0  0  0  0  0  3  0  0  0  0  0  0
    6.7380   -4.5320   -2.4800 C   0  0  0  0  0  3  0  0  0  0  0  0
    7.5510   -5.5780   -2.1120 C   0  0  0  0  0  0  0  0  0  0  0  0
    7.1670   -6.8680   -2.3110 C   0  0  0  0  0  3  0  0  0  0  0  0
    5.9270   -7.1340   -2.8520 C   0  0  0  0  0  3  0  0  0  0  0  0
    8.7870   -5.3800   -1.6040 O   0  0  0  0  0  0  0  0  0  0  0  0
    8.8420   -5.0800   -0.2200 C   0  0  0  0  0  1  0  0  0  0  0  0
    0.5970   -7.5740   -3.0500 O   0  0  0  0  0  0  0  0  0  0  0  0
    0.7520   -8.9330   -3.5710 C   0  0  2  0  0  3  0  0  0  0  0  0
   -0.5160   -9.3520   -4.1530 C   0  0  0  0  0  2  0  0  0  0  0  0
   -1.5450   -9.7350   -3.1330 C   0  0  0  0  0  1  0  0  0  0  0  0
    1.1610   -9.8890   -2.4650 C   0  0  0  0  0  2  0  0  0  0  0  0
    2.4580  -10.5950   -2.9180 C   0  0  0  0  0  2  0  0  0  0  0  0
    3.3930   -9.3590   -0.9970 C   0  0  0  0  0  1  0  0  0  0  0  0
    3.6950   -9.9350   -2.3970 C   0  0  0  0  0  2  0  0  0  0  0  0
  1 13  1  0  0  0  0
  1  3  1  0  0  0  0
  2  1  2  0  0  0  0
  4  5  1  0  0  0  0
  4  3  2  0  0  0  0
  5  6  2  0  0  0  0
  5 10  1  0  0  0  0
  6  7  1  0  0  0  0
  7  8  2  0  0  0  0
  8 11  1  0  0  0  0
  9  8  1  0  0  0  0
 10  9  2  0  0  0  0
 11 12  1  0  0  0  0
 14 15  1  1  0  0  0
 14 13  1  0  0  0  0
 14 17  1  0  0  0  0
 15 16  1  0  0  0  0
 18 17  1  0  0  0  0
 18 20  1  0  0  0  0
 20 19  1  0  0  0  0
M  END
>  <MODEL>
7

>  <REMARK>
 VINA RESULT:      -3.7      1.976      7.234
  Name = bg33_3_ligand
  12 active torsions:
  status: ('A' for Active; 'I' for Inactive)
    1  A    between atoms: C_1  and  C_2
    2  A    between atoms: C_2  and  C_3
    3  A    between atoms: C_3  and  C_4
    4  A    between atoms: C_4  and  C_5
    5  A    between atoms: C_5  and  C_6
    6  A    between atoms: C_5  and  O_8
    7  A    between atoms: C_6  and  C_7
    8  A    between atoms: O_8  and  C_9
    9  A    between atoms: C_9  and  C_11
   10  A    between atoms: C_12  and  C_13
   11  A    between atoms: C_16  and  O_17
   12  A    between atoms: O_17  and  C_18
                            x       y       z     vdW  Elec       q    Type
                         _______ _______ _______ _____ _____    ______ ____

>  <TORSDO>
F 9

$$$$
bg33_3_ligand
 OpenBabel10092621163D

 20 20  0  0  1  0  0  0  0  0999 V2000
    4.0650   -9.1420   -1.3160 C   0  0  0  0  0  0  0  0  0  0  0  0
    4.7200   -9.6500   -0.4360 O   0  0  0  0  0  0  0  0  0  0  0  0
    2.5590   -9.5060   -1.5390 C   0  0  0  0  0  3  0  0  0  0  0  0
    2.2570  -10.6650   -2.1680 C   0  0  0  0  0  3  0  0  0  0  0  0
    0.9010  -11.0250   -2.4980 C   0  0  0  0  0  0  0  0  0  0  0  0
    0.4660  -12.3290   -2.4030 C   0  0  0  0  0  3  0  0  0  0  0  0
   -0.8100  -12.6830   -2.6560 C   0  0  0  0  0  3  0  0  0  0  0  0
   -1.6980  -11.6990   -3.0250 C   0  0  0  0  0  0  0  0  0  0  0  0
   -1.2950  -10.4070   -3.1630 C   0  0  0  0  0  3  0  0  0  0  0  0
    0.0130  -10.0690   -2.8880 C   0  0  0  0  0  3  0  0  0  0  0  0
   -2.9840  -11.9750   -3.3340 O   0  0  0  0  0  0  0  0  0  0  0  0
   -3.7030  -12.7170   -2.3640 C   0  0  0  0  0  1  0  0  0  0  0  0
    4.6530   -8.3170   -2.0730 O   0  0  0  0  0  0  0  0  0  0  0  0
    3.9110   -7.8190   -3.2320 C   0  0  2  0  0  3  0  0  0  0  0  0
    4.6340   -8.1950   -4.4400 C   0  0  0  0  0  2  0  0  0  0  0  0
    3.8180   -9.0160   -5.3930 C   0  0  0  0  0  1  0  0  0  0  0  0
    3.7560   -6.3110   -3.1650 C   0  0  0  0  0  2  0  0  0  0  0  0
    2.3380   -6.0130   -2.6300 C   0  0  0  0  0  2  0  0  0  0  0  0
    1.2460   -5.8100   -4.8340 C   0  0  0  0  0  1  0  0  0  0  0  0
    1.2570   -6.5780   -3.4950 C   0  0  0  0  0  2  0  0  0  0  0  0
  1  2  2  0  0  0  0
  3  1  1  0  0  0  0
  4  3  2  0  0  0  0
  5  6  1  0  0  0  0
  5  4  1  0  0  0  0
  7  6  2  0  0  0  0
  8  7  1  0  0  0  0
  9  8  2  0  0  0  0
  9 10  1  0  0  0  0
 10  5  2  0  0  0  0
 11  8  1  0  0  0  0
 11 12  1  0  0  0  0
 13  1  1  0  0  0  0
 14 15  1  6  0  0  0
 14 17  1  0  0  0  0
 14 13  1  0  0  0  0
 16 15  1  0  0  0  0
 17 18  1  0  0  0  0
 19 20  1  0  0  0  0
 20 18  1  0  0  0  0
M  END
>  <MODEL>
8

>  <REMARK>
 VINA RESULT:      -3.7      3.683      5.723
  Name = bg33_3_ligand
  12 active torsions:
  status: ('A' for Active; 'I' for Inactive)
    1  A    between atoms: C_1  and  C_2
    2  A    between atoms: C_2  and  C_3
    3  A    between atoms: C_3  and  C_4
    4  A    between atoms: C_4  and  C_5
    5  A    between atoms: C_5  and  C_6
    6  A    between atoms: C_5  and  O_8
    7  A    between atoms: C_6  and  C_7
    8  A    between atoms: O_8  and  C_9
    9  A    between atoms: C_9  and  C_11
   10  A    between atoms: C_12  and  C_13
   11  A    between atoms: C_16  and  O_17
   12  A    between atoms: O_17  and  C_18
                            x       y       z     vdW  Elec       q    Type
                         _______ _______ _______ _____ _____    ______ ____

>  <TORSDO>
F 9

$$$$
bg33_3_ligand
 OpenBabel10092621163D

 20 20  0  0  1  0  0  0  0  0999 V2000
    5.5310   -9.1190   -1.0420 C   0  0  0  0  0  0  0  0  0  0  0  0
    5.9730  -10.0370   -0.3920 O   0  0  0  0  0  0  0  0  0  0  0  0
    3.9950   -8.9510   -1.2930 C   0  0  0  0  0  3  0  0  0  0  0  0
    3.3220   -9.9510   -1.9060 C   0  0  0  0  0  3  0  0  0  0  0  0
    1.9310   -9.8320   -2.2600 C   0  0  0  0  0  0  0  0  0  0  0  0
    1.3410   -8.6000   -2.4320 C   0  0  0  0  0  3  0  0  0  0  0  0
    0.0550   -8.4620   -2.8130 C   0  0  0  0  0  3  0  0  0  0  0  0
   -0.6840   -9.6020   -3.0310 C   0  0  0  0  0  0  0  0  0  0  0  0
   -0.1450  -10.8360   -2.8360 C   0  0  0  0  0  3  0  0  0  0  0  0
    1.1760  -10.9490   -2.4570 C   0  0  0  0  0  3  0  0  0  0  0  0
   -1.9890   -9.5530   -3.3770 O   0  0  0  0  0  0  0  0  0  0  0  0
   -2.2920   -9.9710   -4.6960 C   0  0  0  0  0  1  0  0  0  0  0  0
    6.3640   -8.3070   -1.5390 O   0  0  0  0  0  0  0  0  0  0  0  0
    6.0630   -7.7610   -2.8630 C   0  0  2  0  0  3  0  0  0  0  0  0
    6.9130   -8.4260   -3.8410 C   0  0  0  0  0  2  0  0  0  0  0  0
    6.1590   -9.3300   -4.7700 C   0  0  0  0  0  1  0  0  0  0  0  0
    6.3050   -6.2620   -2.8940 C   0  0  0  0  0  2  0  0  0  0  0  0
    5.2810   -5.6470   -3.8730 C   0  0  0  0  0  2  0  0  0  0  0  0
    3.1920   -6.5110   -4.8650 C   0  0  0  0  0  1  0  0  0  0  0  0
    3.8700   -6.0340   -3.5620 C   0  0  0  0  0  2  0  0  0  0  0  0
  1  2  2  0  0  0  0
  3  1  1  0  0  0  0
  4  3  2  0  0  0  0
  5  4  1  0  0  0  0
  6  5  1  0  0  0  0
  7  6  2  0  0  0  0
  8  9  2  0  0  0  0
  8  7  1  0  0  0  0
  9 10  1  0  0  0  0
 10  5  2  0  0  0  0
 11  8  1  0  0  0  0
 12 11  1  0  0  0  0
 13  1  1  0  0  0  0
 14 15  1  6  0  0  0
 14 13  1  0  0  0  0
 16 15  1  0  0  0  0
 17 14  1  0  0  0  0
 18 20  1  0  0  0  0
 18 17  1  0  0  0  0
 19 20  1  0  0  0  0
M  END
>  <MODEL>
9

>  <REMARK>
 VINA RESULT:      -3.7      2.467      4.203
  Name = bg33_3_ligand
  12 active torsions:
  status: ('A' for Active; 'I' for Inactive)
    1  A    between atoms: C_1  and  C_2
    2  A    between atoms: C_2  and  C_3
    3  A    between atoms: C_3  and  C_4
    4  A    between atoms: C_4  and  C_5
    5  A    between atoms: C_5  and  C_6
    6  A    between atoms: C_5  and  O_8
    7  A    between atoms: C_6  and  C_7
    8  A    between atoms: O_8  and  C_9
    9  A    between atoms: C_9  and  C_11
   10  A    between atoms: C_12  and  C_13
   11  A    between atoms: C_16  and  O_17
   12  A    between atoms: O_17  and  C_18
                            x       y       z     vdW  Elec       q    Type
                         _______ _______ _______ _____ _____    ______ ____

>  <TORSDO>
F 9

$$$$
