ox1_esm1_f8_ligand
     RDKit          3D

 29 30  0  0  0  0  0  0  0  0999 V2000
    4.8034    0.8493    6.0101 C   0  0  0  0  0  0  0  0  0  0  0  0
    3.9980    0.9361    4.8306 O   0  0  0  0  0  0  0  0  0  0  0  0
    4.5030    1.4439    3.6695 C   0  0  0  0  0  0  0  0  0  0  0  0
    3.6591    1.5095    2.5607 C   0  0  0  0  0  0  0  0  0  0  0  0
    4.1290    2.0094    1.3545 C   0  0  0  0  0  0  0  0  0  0  0  0
    5.4387    2.4382    1.2258 C   0  0  0  0  0  0  0  0  0  0  0  0
    5.9416    2.9621   -0.0852 C   0  0  0  0  0  0  0  0  0  0  0  0
    7.0482    3.4925   -0.1368 O   0  0  0  0  0  0  0  0  0  0  0  0
    5.1058    2.8693   -1.3191 C   0  0  0  0  0  0  0  0  0  0  0  0
    4.7706    3.9737   -2.0147 C   0  0  0  0  0  0  0  0  0  0  0  0
    4.0315    3.9609   -3.1837 C   0  0  0  0  0  0  0  0  0  0  0  0
    3.5689    2.7577   -3.6591 C   0  0  0  0  0  0  0  0  0  0  0  0
    3.8791    1.5971   -2.9645 C   0  0  0  0  0  0  0  0  0  0  0  0
    4.6415    1.6649   -1.7983 C   0  0  0  0  0  0  0  0  0  0  0  0
    6.2971    2.3826    2.3433 C   0  0  0  0  0  0  0  0  0  0  0  0
    7.5836    2.8220    2.2236 O   0  0  0  0  0  0  0  0  0  0  0  0
    5.8118    1.8838    3.5511 C   0  0  0  0  0  0  0  0  0  0  0  0
    5.8146    0.5117    5.7395 H   0  0  0  0  0  0  0  0  0  0  0  0
    4.8626    1.8387    6.4873 H   0  0  0  0  0  0  0  0  0  0  0  0
    4.3520    0.1309    6.7102 H   0  0  0  0  0  0  0  0  0  0  0  0
    2.6180    1.1639    2.6428 H   0  0  0  0  0  0  0  0  0  0  0  0
    3.4519    2.0657    0.4894 H   0  0  0  0  0  0  0  0  0  0  0  0
    5.1063    4.9473   -1.6282 H   0  0  0  0  0  0  0  0  0  0  0  0
    3.8182    4.8960   -3.7224 H   0  0  0  0  0  0  0  0  0  0  0  0
    2.9622    2.7150   -4.5756 H   0  0  0  0  0  0  0  0  0  0  0  0
    3.5239    0.6236   -3.3334 H   0  0  0  0  0  0  0  0  0  0  0  0
    4.8761    0.7395   -1.2517 H   0  0  0  0  0  0  0  0  0  0  0  0
    8.1932    2.7866    3.0028 H   0  0  0  0  0  0  0  0  0  0  0  0
    6.4787    1.8386    4.4247 H   0  0  0  0  0  0  0  0  0  0  0  0
  2  1  1  0
  3  2  1  0
  4  3  1  0
  5  4  2  0
  6  5  1  0
  7  6  1  0
  8  7  2  0
  9  7  1  0
 10  9  2  0
 11 10  1  0
 12 11  2  0
 13 12  1  0
 14 13  2  0
 14  9  1  0
 15  6  2  0
 16 15  1  0
 17 15  1  0
 17  3  2  0
  1 18  1  0
  1 19  1  0
  1 20  1  0
  4 21  1  0
  5 22  1  0
 10 23  1  0
 11 24  1  0
 12 25  1  0
 13 26  1  0
 14 27  1  0
 16 28  1  0
 17 29  1  0
M  END
$$$$
