ox1_esm1_f8_ligand
 OpenBabel10092621183D

 18 19  0  0  0  0  0  0  0  0999 V2000
    3.4320    1.1300    3.4250 C   0  0  0  0  0  0  0  0  0  0  0  0
    2.5280    1.8970    2.6910 C   0  0  0  0  0  3  0  0  0  0  0  0
    2.9330    2.5250    1.5210 C   0  0  0  0  0  3  0  0  0  0  0  0
    4.2310    2.3930    1.0580 C   0  0  0  0  0  0  0  0  0  0  0  0
    5.1540    1.6270    1.7970 C   0  0  0  0  0  0  0  0  0  0  0  0
    4.7370    1.0050    2.9730 C   0  0  0  0  0  3  0  0  0  0  0  0
    2.9730   -0.9010    4.6840 C   0  0  0  0  0  1  0  0  0  0  0  0
    2.9840    0.5240    4.5620 O   0  0  0  0  0  0  0  0  0  0  0  0
    4.6550    3.0630   -0.2140 C   0  0  0  0  0  0  0  0  0  0  0  0
    5.3420    4.0790   -0.1600 O   0  0  0  0  0  0  0  0  0  0  0  0
    4.2330    2.5240   -1.5420 C   0  0  0  0  0  0  0  0  0  0  0  0
    4.7930    1.4070   -2.0470 C   0  0  0  0  0  3  0  0  0  0  0  0
    4.4280    0.8310   -3.2500 C   0  0  0  0  0  3  0  0  0  0  0  0
    3.4620    1.4450   -4.0090 C   0  0  0  0  0  3  0  0  0  0  0  0
    2.8690    2.6060   -3.5330 C   0  0  0  0  0  3  0  0  0  0  0  0
    3.2650    3.1370   -2.3050 C   0  0  0  0  0  3  0  0  0  0  0  0
    6.4390    1.5100    1.3520 O   0  0  0  0  0  0  0  0  0  0  0  0
    7.0340    0.8170    1.7330 H   0  0  0  0  0  0  0  0  0  0  0  0
  1  8  1  0  0  0  0
  2  1  2  0  0  0  0
  3  2  1  0  0  0  0
  4  3  2  0  0  0  0
  4  5  1  0  0  0  0
  5  6  2  0  0  0  0
  6  1  1  0  0  0  0
  8  7  1  0  0  0  0
  9 10  2  0  0  0  0
  9  4  1  0  0  0  0
 11  9  1  0  0  0  0
 12 11  1  0  0  0  0
 13 12  2  0  0  0  0
 14 15  2  0  0  0  0
 14 13  1  0  0  0  0
 15 16  1  0  0  0  0
 16 11  2  0  0  0  0
 17 18  1  0  0  0  0
 17  5  1  0  0  0  0
M  END
>  <MODEL>
1

>  <REMARK>
 VINA RESULT:      -5.0      0.000      0.000
  Name = ox1_esm1_f8_ligand
  5 active torsions:
  status: ('A' for Active; 'I' for Inactive)
    1  A    between atoms: C_1  and  O_2
    2  A    between atoms: O_2  and  C_3
    3  A    between atoms: C_6  and  C_7
    4  A    between atoms: C_7  and  C_9
    5  A    between atoms: C_15  and  O_16
                            x       y       z     vdW  Elec       q    Type
                         _______ _______ _______ _____ _____    ______ ____

>  <TORSDO>
F 4

$$$$
ox1_esm1_f8_ligand
 OpenBabel10092621183D

 18 19  0  0  0  0  0  0  0  0999 V2000
    8.8140   -4.9920   -3.6570 C   0  0  0  0  0  0  0  0  0  0  0  0
    7.8680   -4.2370   -2.9620 C   0  0  0  0  0  3  0  0  0  0  0  0
    6.8620   -3.5750   -3.6500 C   0  0  0  0  0  3  0  0  0  0  0  0
    6.7700   -3.6600   -5.0290 C   0  0  0  0  0  0  0  0  0  0  0  0
    7.7250   -4.4130   -5.7400 C   0  0  0  0  0  0  0  0  0  0  0  0
    8.7350   -5.0700   -5.0380 C   0  0  0  0  0  3  0  0  0  0  0  0
    9.4650   -6.7800   -2.1410 C   0  0  0  0  0  1  0  0  0  0  0  0
    9.7780   -5.6330   -2.9350 O   0  0  0  0  0  0  0  0  0  0  0  0
    5.6700   -2.9530   -5.7630 C   0  0  0  0  0  0  0  0  0  0  0  0
    5.1650   -3.4840   -6.7480 O   0  0  0  0  0  0  0  0  0  0  0  0
    5.2010   -1.6040   -5.3260 C   0  0  0  0  0  0  0  0  0  0  0  0
    5.7830   -0.4820   -5.7930 C   0  0  0  0  0  3  0  0  0  0  0  0
    5.3790    0.7990   -5.4620 C   0  0  0  0  0  3  0  0  0  0  0  0
    4.3450    0.9550   -4.5710 C   0  0  0  0  0  3  0  0  0  0  0  0
    3.7270   -0.1750   -4.0540 C   0  0  0  0  0  3  0  0  0  0  0  0
    4.1650   -1.4450   -4.4330 C   0  0  0  0  0  3  0  0  0  0  0  0
    7.6480   -4.4840   -7.1010 O   0  0  0  0  0  0  0  0  0  0  0  0
    6.8180   -4.2110   -7.5650 H   0  0  0  0  0  0  0  0  0  0  0  0
  1  2  1  0  0  0  0
  1  8  1  0  0  0  0
  3  2  2  0  0  0  0
  4  3  1  0  0  0  0
  5  6  1  0  0  0  0
  5  4  2  0  0  0  0
  6  1  2  0  0  0  0
  8  7  1  0  0  0  0
  9 11  1  0  0  0  0
  9  4  1  0  0  0  0
 10  9  2  0  0  0  0
 11 16  1  0  0  0  0
 12 13  1  0  0  0  0
 12 11  2  0  0  0  0
 13 14  2  0  0  0  0
 14 15  1  0  0  0  0
 16 15  2  0  0  0  0
 17  5  1  0  0  0  0
 18 17  1  0  0  0  0
M  END
>  <MODEL>
2

>  <REMARK>
 VINA RESULT:      -4.8      6.567      8.490
  Name = ox1_esm1_f8_ligand
  5 active torsions:
  status: ('A' for Active; 'I' for Inactive)
    1  A    between atoms: C_1  and  O_2
    2  A    between atoms: O_2  and  C_3
    3  A    between atoms: C_6  and  C_7
    4  A    between atoms: C_7  and  C_9
    5  A    between atoms: C_15  and  O_16
                            x       y       z     vdW  Elec       q    Type
                         _______ _______ _______ _____ _____    ______ ____

>  <TORSDO>
F 4

$$$$
ox1_esm1_f8_ligand
 OpenBabel10092621183D

 18 19  0  0  0  0  0  0  0  0999 V2000
    4.4160    3.2900   -1.8780 C   0  0  0  0  0  0  0  0  0  0  0  0
    4.7800    1.9450   -1.8250 C   0  0  0  0  0  3  0  0  0  0  0  0
    5.2210    1.3870   -0.6340 C   0  0  0  0  0  3  0  0  0  0  0  0
    5.2970    2.1470    0.5210 C   0  0  0  0  0  0  0  0  0  0  0  0
    4.9390    3.5100    0.4750 C   0  0  0  0  0  0  0  0  0  0  0  0
    4.5020    4.0600   -0.7290 C   0  0  0  0  0  3  0  0  0  0  0  0
    2.5950    3.7410   -3.4280 C   0  0  0  0  0  1  0  0  0  0  0  0
    3.9790    3.7910   -3.0700 O   0  0  0  0  0  0  0  0  0  0  0  0
    5.7600    1.5320    1.8070 C   0  0  0  0  0  0  0  0  0  0  0  0
    6.9290    1.6730    2.1540 O   0  0  0  0  0  0  0  0  0  0  0  0
    4.8260    0.7320    2.6540 C   0  0  0  0  0  0  0  0  0  0  0  0
    3.5810    0.4380    2.2270 C   0  0  0  0  0  3  0  0  0  0  0  0
    2.6760   -0.3270    2.9400 C   0  0  0  0  0  3  0  0  0  0  0  0
    3.0380   -0.7920    4.1810 C   0  0  0  0  0  3  0  0  0  0  0  0
    4.3050   -0.4990    4.6650 C   0  0  0  0  0  3  0  0  0  0  0  0
    5.1850    0.2650    3.8980 C   0  0  0  0  0  3  0  0  0  0  0  0
    5.0300    4.2660    1.6080 O   0  0  0  0  0  0  0  0  0  0  0  0
    4.4980    4.0270    2.4070 H   0  0  0  0  0  0  0  0  0  0  0  0
  1  2  2  0  0  0  0
  1  6  1  0  0  0  0
  2  3  1  0  0  0  0
  3  4  2  0  0  0  0
  4  9  1  0  0  0  0
  5  4  1  0  0  0  0
  5 17  1  0  0  0  0
  6  5  2  0  0  0  0
  7  8  1  0  0  0  0
  8  1  1  0  0  0  0
  9 10  2  0  0  0  0
  9 11  1  0  0  0  0
 11 16  1  0  0  0  0
 12 11  2  0  0  0  0
 12 13  1  0  0  0  0
 13 14  2  0  0  0  0
 14 15  1  0  0  0  0
 16 15  2  0  0  0  0
 17 18  1  0  0  0  0
M  END
>  <MODEL>
3

>  <REMARK>
 VINA RESULT:      -4.7      1.787      5.815
  Name = ox1_esm1_f8_ligand
  5 active torsions:
  status: ('A' for Active; 'I' for Inactive)
    1  A    between atoms: C_1  and  O_2
    2  A    between atoms: O_2  and  C_3
    3  A    between atoms: C_6  and  C_7
    4  A    between atoms: C_7  and  C_9
    5  A    between atoms: C_15  and  O_16
                            x       y       z     vdW  Elec       q    Type
                         _______ _______ _______ _____ _____    ______ ____

>  <TORSDO>
F 4

$$$$
ox1_esm1_f8_ligand
 OpenBabel10092621183D

 18 19  0  0  0  0  0  0  0  0999 V2000
    3.2210    2.1400    3.5170 C   0  0  0  0  0  0  0  0  0  0  0  0
    3.2790    0.9530    2.7870 C   0  0  0  0  0  3  0  0  0  0  0  0
    3.9600    0.9090    1.5790 C   0  0  0  0  0  3  0  0  0  0  0  0
    4.6000    2.0330    1.0840 C   0  0  0  0  0  0  0  0  0  0  0  0
    4.5400    3.2390    1.8100 C   0  0  0  0  0  0  0  0  0  0  0  0
    3.8490    3.2720    3.0210 C   0  0  0  0  0  3  0  0  0  0  0  0
    2.7050    1.0540    5.6320 C   0  0  0  0  0  1  0  0  0  0  0  0
    2.5490    2.1310    4.7040 O   0  0  0  0  0  0  0  0  0  0  0  0
    5.3460    1.9720   -0.2150 C   0  0  0  0  0  0  0  0  0  0  0  0
    6.5730    1.9270   -0.2040 O   0  0  0  0  0  0  0  0  0  0  0  0
    4.6170    1.9920   -1.5190 C   0  0  0  0  0  0  0  0  0  0  0  0
    3.7210    2.9600   -1.7980 C   0  0  0  0  0  3  0  0  0  0  0  0
    3.0370    3.0630   -2.9950 C   0  0  0  0  0  3  0  0  0  0  0  0
    3.2430    2.1050   -3.9580 C   0  0  0  0  0  3  0  0  0  0  0  0
    4.1470    1.0820   -3.7060 C   0  0  0  0  0  3  0  0  0  0  0  0
    4.8220    1.0340   -2.4860 C   0  0  0  0  0  3  0  0  0  0  0  0
    5.1550    4.3530    1.3160 O   0  0  0  0  0  0  0  0  0  0  0  0
    4.6600    4.9690    0.7210 H   0  0  0  0  0  0  0  0  0  0  0  0
  1  8  1  0  0  0  0
  2  1  2  0  0  0  0
  3  2  1  0  0  0  0
  4  3  2  0  0  0  0
  4  5  1  0  0  0  0
  5  6  2  0  0  0  0
  6  1  1  0  0  0  0
  8  7  1  0  0  0  0
  9 10  2  0  0  0  0
  9  4  1  0  0  0  0
 11  9  1  0  0  0  0
 12 11  1  0  0  0  0
 13 12  2  0  0  0  0
 14 15  2  0  0  0  0
 14 13  1  0  0  0  0
 15 16  1  0  0  0  0
 16 11  2  0  0  0  0
 17  5  1  0  0  0  0
 18 17  1  0  0  0  0
M  END
>  <MODEL>
4

>  <REMARK>
 VINA RESULT:      -4.7      1.227      1.923
  Name = ox1_esm1_f8_ligand
  5 active torsions:
  status: ('A' for Active; 'I' for Inactive)
    1  A    between atoms: C_1  and  O_2
    2  A    between atoms: O_2  and  C_3
    3  A    between atoms: C_6  and  C_7
    4  A    between atoms: C_7  and  C_9
    5  A    between atoms: C_15  and  O_16
                            x       y       z     vdW  Elec       q    Type
                         _______ _______ _______ _____ _____    ______ ____

>  <TORSDO>
F 4

$$$$
ox1_esm1_f8_ligand
 OpenBabel10092621183D

 18 19  0  0  0  0  0  0  0  0999 V2000
    8.5590    0.6070    5.7710 C   0  0  0  0  0  0  0  0  0  0  0  0
    8.2330   -0.1090    4.6190 C   0  0  0  0  0  3  0  0  0  0  0  0
    6.9050   -0.3340    4.2890 C   0  0  0  0  0  3  0  0  0  0  0  0
    5.8830    0.1530    5.0860 C   0  0  0  0  0  0  0  0  0  0  0  0
    6.2020    0.8700    6.2560 C   0  0  0  0  0  0  0  0  0  0  0  0
    7.5400    1.0860    6.5800 C   0  0  0  0  0  3  0  0  0  0  0  0
   10.5950   -0.0680    6.9190 C   0  0  0  0  0  1  0  0  0  0  0  0
    9.8790    0.8120    6.0480 O   0  0  0  0  0  0  0  0  0  0  0  0
    4.4500   -0.0830    4.7130 C   0  0  0  0  0  0  0  0  0  0  0  0
    3.9070   -1.1330    5.0450 O   0  0  0  0  0  0  0  0  0  0  0  0
    3.6870    0.9300    3.9250 C   0  0  0  0  0  0  0  0  0  0  0  0
    2.8340    1.7810    4.5300 C   0  0  0  0  0  3  0  0  0  0  0  0
    2.1220    2.7670    3.8710 C   0  0  0  0  0  3  0  0  0  0  0  0
    2.2500    2.8740    2.5080 C   0  0  0  0  0  3  0  0  0  0  0  0
    3.1070    2.0070    1.8430 C   0  0  0  0  0  3  0  0  0  0  0  0
    3.8130    1.0400    2.5590 C   0  0  0  0  0  3  0  0  0  0  0  0
    5.1960    1.3370    7.0540 O   0  0  0  0  0  0  0  0  0  0  0  0
    5.2190    1.1680    8.0280 H   0  0  0  0  0  0  0  0  0  0  0  0
  1  8  1  0  0  0  0
  1  6  1  0  0  0  0
  2  1  2  0  0  0  0
  3  2  1  0  0  0  0
  3  4  2  0  0  0  0
  4  5  1  0  0  0  0
  5  6  2  0  0  0  0
  5 17  1  0  0  0  0
  8  7  1  0  0  0  0
  9 10  2  0  0  0  0
  9  4  1  0  0  0  0
 11 12  1  0  0  0  0
 11  9  1  0  0  0  0
 13 12  2  0  0  0  0
 14 13  1  0  0  0  0
 15 14  2  0  0  0  0
 15 16  1  0  0  0  0
 16 11  2  0  0  0  0
 17 18  1  0  0  0  0
M  END
>  <MODEL>
5

>  <REMARK>
 VINA RESULT:      -4.6      3.822      6.193
  Name = ox1_esm1_f8_ligand
  5 active torsions:
  status: ('A' for Active; 'I' for Inactive)
    1  A    between atoms: C_1  and  O_2
    2  A    between atoms: O_2  and  C_3
    3  A    between atoms: C_6  and  C_7
    4  A    between atoms: C_7  and  C_9
    5  A    between atoms: C_15  and  O_16
                            x       y       z     vdW  Elec       q    Type
                         _______ _______ _______ _____ _____    ______ ____

>  <TORSDO>
F 4

$$$$
ox1_esm1_f8_ligand
 OpenBabel10092621183D

 18 19  0  0  0  0  0  0  0  0999 V2000
   10.0710   -1.2800    3.0670 C   0  0  0  0  0  0  0  0  0  0  0  0
    9.0790   -2.2470    3.2410 C   0  0  0  0  0  3  0  0  0  0  0  0
    7.8800   -1.9140    3.8530 C   0  0  0  0  0  3  0  0  0  0  0  0
    7.6410   -0.6220    4.2920 C   0  0  0  0  0  0  0  0  0  0  0  0
    8.6390    0.3590    4.1290 C   0  0  0  0  0  0  0  0  0  0  0  0
    9.8420    0.0110    3.5160 C   0  0  0  0  0  3  0  0  0  0  0  0
   11.2550   -2.7490    1.5320 C   0  0  0  0  0  1  0  0  0  0  0  0
   11.2290   -1.6530    2.4500 O   0  0  0  0  0  0  0  0  0  0  0  0
    6.3360   -0.2690    4.9390 C   0  0  0  0  0  0  0  0  0  0  0  0
    6.2950   -0.0910    6.1540 O   0  0  0  0  0  0  0  0  0  0  0  0
    5.0850   -0.1560    4.1310 C   0  0  0  0  0  0  0  0  0  0  0  0
    3.9520   -0.7780    4.5150 C   0  0  0  0  0  3  0  0  0  0  0  0
    2.7500   -0.6880    3.8380 C   0  0  0  0  0  3  0  0  0  0  0  0
    2.6980    0.0440    2.6780 C   0  0  0  0  0  3  0  0  0  0  0  0
    3.8460    0.6890    2.2380 C   0  0  0  0  0  3  0  0  0  0  0  0
    5.0300    0.5780    2.9680 C   0  0  0  0  0  3  0  0  0  0  0  0
    8.4140    1.6280    4.5760 O   0  0  0  0  0  0  0  0  0  0  0  0
    8.9650    2.0000    5.3090 H   0  0  0  0  0  0  0  0  0  0  0  0
  1  2  2  0  0  0  0
  1  6  1  0  0  0  0
  2  3  1  0  0  0  0
  3  4  2  0  0  0  0
  4  9  1  0  0  0  0
  5  4  1  0  0  0  0
  5 17  1  0  0  0  0
  6  5  2  0  0  0  0
  7  8  1  0  0  0  0
  8  1  1  0  0  0  0
  9 10  2  0  0  0  0
 11 12  1  0  0  0  0
 11  9  1  0  0  0  0
 13 12  2  0  0  0  0
 14 13  1  0  0  0  0
 15 14  2  0  0  0  0
 15 16  1  0  0  0  0
 16 11  2  0  0  0  0
 17 18  1  0  0  0  0
M  END
>  <MODEL>
6

>  <REMARK>
 VINA RESULT:      -4.5      4.021      6.758
  Name = ox1_esm1_f8_ligand
  5 active torsions:
  status: ('A' for Active; 'I' for Inactive)
    1  A    between atoms: C_1  and  O_2
    2  A    between atoms: O_2  and  C_3
    3  A    between atoms: C_6  and  C_7
    4  A    between atoms: C_7  and  C_9
    5  A    between atoms: C_15  and  O_16
                            x       y       z     vdW  Elec       q    Type
                         _______ _______ _______ _____ _____    ______ ____

>  <TORSDO>
F 4

$$$$
ox1_esm1_f8_ligand
 OpenBabel10092621183D

 18 19  0  0  0  0  0  0  0  0999 V2000
    6.5280    3.0430   -1.3800 C   0  0  0  0  0  0  0  0  0  0  0  0
    5.8330    1.8360   -1.4580 C   0  0  0  0  0  3  0  0  0  0  0  0
    4.8820    1.5150   -0.5010 C   0  0  0  0  0  3  0  0  0  0  0  0
    4.5960    2.3850    0.5360 C   0  0  0  0  0  0  0  0  0  0  0  0
    5.2980    3.6040    0.6280 C   0  0  0  0  0  0  0  0  0  0  0  0
    6.2560    3.9140   -0.3360 C   0  0  0  0  0  3  0  0  0  0  0  0
    7.2270    2.9240   -3.7070 C   0  0  0  0  0  1  0  0  0  0  0  0
    7.4460    3.3190   -2.3500 O   0  0  0  0  0  0  0  0  0  0  0  0
    3.5560    2.0370    1.5570 C   0  0  0  0  0  0  0  0  0  0  0  0
    2.4630    2.5950    1.5190 O   0  0  0  0  0  0  0  0  0  0  0  0
    3.8400    1.0390    2.6320 C   0  0  0  0  0  0  0  0  0  0  0  0
    2.8630    0.2540    3.1260 C   0  0  0  0  0  3  0  0  0  0  0  0
    3.0590   -0.7150    4.0940 C   0  0  0  0  0  3  0  0  0  0  0  0
    4.3170   -0.8730    4.6240 C   0  0  0  0  0  3  0  0  0  0  0  0
    5.3500   -0.0740    4.1530 C   0  0  0  0  0  3  0  0  0  0  0  0
    5.1000    0.8780    3.1640 C   0  0  0  0  0  3  0  0  0  0  0  0
    5.0320    4.4570    1.6610 O   0  0  0  0  0  0  0  0  0  0  0  0
    5.6510    5.2020    1.8600 H   0  0  0  0  0  0  0  0  0  0  0  0
  1  6  1  0  0  0  0
  2  1  2  0  0  0  0
  2  3  1  0  0  0  0
  3  4  2  0  0  0  0
  4  5  1  0  0  0  0
  4  9  1  0  0  0  0
  5 17  1  0  0  0  0
  6  5  2  0  0  0  0
  7  8  1  0  0  0  0
  8  1  1  0  0  0  0
  9 11  1  0  0  0  0
 10  9  2  0  0  0  0
 11 12  2  0  0  0  0
 11 16  1  0  0  0  0
 12 13  1  0  0  0  0
 13 14  2  0  0  0  0
 15 14  1  0  0  0  0
 16 15  2  0  0  0  0
 17 18  1  0  0  0  0
M  END
>  <MODEL>
7

>  <REMARK>
 VINA RESULT:      -4.5      2.185      5.991
  Name = ox1_esm1_f8_ligand
  5 active torsions:
  status: ('A' for Active; 'I' for Inactive)
    1  A    between atoms: C_1  and  O_2
    2  A    between atoms: O_2  and  C_3
    3  A    between atoms: C_6  and  C_7
    4  A    between atoms: C_7  and  C_9
    5  A    between atoms: C_15  and  O_16
                            x       y       z     vdW  Elec       q    Type
                         _______ _______ _______ _____ _____    ______ ____

>  <TORSDO>
F 4

$$$$
ox1_esm1_f8_ligand
 OpenBabel10092621183D

 18 19  0  0  0  0  0  0  0  0999 V2000
    4.6780    2.3800    1.4100 C   0  0  0  0  0  0  0  0  0  0  0  0
    5.7870    1.6980    0.9080 C   0  0  0  0  0  3  0  0  0  0  0  0
    5.9570    1.5530   -0.4610 C   0  0  0  0  0  3  0  0  0  0  0  0
    5.0420    2.0890   -1.3510 C   0  0  0  0  0  0  0  0  0  0  0  0
    3.9150    2.7730   -0.8540 C   0  0  0  0  0  0  0  0  0  0  0  0
    3.7520    2.9080    0.5240 C   0  0  0  0  0  3  0  0  0  0  0  0
    3.5140    1.8400    3.4770 C   0  0  0  0  0  1  0  0  0  0  0  0
    4.5600    2.5050    2.7630 O   0  0  0  0  0  0  0  0  0  0  0  0
    5.2420    1.9400   -2.8290 C   0  0  0  0  0  0  0  0  0  0  0  0
    5.3980    2.9430   -3.5190 O   0  0  0  0  0  0  0  0  0  0  0  0
    5.2290    0.5920   -3.4720 C   0  0  0  0  0  0  0  0  0  0  0  0
    4.0680   -0.0450   -3.7220 C   0  0  0  0  0  3  0  0  0  0  0  0
    3.9770   -1.2760   -4.3470 C   0  0  0  0  0  3  0  0  0  0  0  0
    5.1350   -1.9210   -4.7060 C   0  0  0  0  0  3  0  0  0  0  0  0
    6.3530   -1.3060   -4.4540 C   0  0  0  0  0  3  0  0  0  0  0  0
    6.3880   -0.0570   -3.8340 C   0  0  0  0  0  3  0  0  0  0  0  0
    3.0010    3.2870   -1.7290 O   0  0  0  0  0  0  0  0  0  0  0  0
    2.3650    2.6860   -2.1900 H   0  0  0  0  0  0  0  0  0  0  0  0
  1  8  1  0  0  0  0
  2  1  1  0  0  0  0
  3  2  2  0  0  0  0
  4  5  2  0  0  0  0
  4  3  1  0  0  0  0
  5  6  1  0  0  0  0
  6  1  2  0  0  0  0
  8  7  1  0  0  0  0
  9  4  1  0  0  0  0
 10  9  2  0  0  0  0
 11  9  1  0  0  0  0
 12 11  1  0  0  0  0
 13 12  2  0  0  0  0
 14 15  2  0  0  0  0
 14 13  1  0  0  0  0
 15 16  1  0  0  0  0
 16 11  2  0  0  0  0
 17  5  1  0  0  0  0
 18 17  1  0  0  0  0
M  END
>  <MODEL>
8

>  <REMARK>
 VINA RESULT:      -4.5      2.023      3.526
  Name = ox1_esm1_f8_ligand
  5 active torsions:
  status: ('A' for Active; 'I' for Inactive)
    1  A    between atoms: C_1  and  O_2
    2  A    between atoms: O_2  and  C_3
    3  A    between atoms: C_6  and  C_7
    4  A    between atoms: C_7  and  C_9
    5  A    between atoms: C_15  and  O_16
                            x       y       z     vdW  Elec       q    Type
                         _______ _______ _______ _____ _____    ______ ____

>  <TORSDO>
F 4

$$$$
ox1_esm1_f8_ligand
 OpenBabel10092621183D

 18 19  0  0  0  0  0  0  0  0999 V2000
    9.7930   -1.7790    2.3320 C   0  0  0  0  0  0  0  0  0  0  0  0
    9.0350   -2.1300    3.4500 C   0  0  0  0  0  3  0  0  0  0  0  0
    8.0140   -1.3000    3.8900 C   0  0  0  0  0  3  0  0  0  0  0  0
    7.7210   -0.1210    3.2250 C   0  0  0  0  0  0  0  0  0  0  0  0
    8.4870    0.2460    2.1000 C   0  0  0  0  0  0  0  0  0  0  0  0
    9.5130   -0.5940    1.6700 C   0  0  0  0  0  3  0  0  0  0  0  0
   10.8490   -3.9680    2.4400 C   0  0  0  0  0  1  0  0  0  0  0  0
   10.7790   -2.6330    1.9330 O   0  0  0  0  0  0  0  0  0  0  0  0
    6.6070    0.7620    3.6980 C   0  0  0  0  0  0  0  0  0  0  0  0
    6.8730    1.8500    4.2010 O   0  0  0  0  0  0  0  0  0  0  0  0
    5.1830    0.3250    3.5890 C   0  0  0  0  0  0  0  0  0  0  0  0
    4.4380    0.6500    2.5130 C   0  0  0  0  0  3  0  0  0  0  0  0
    3.1270    0.2500    2.3270 C   0  0  0  0  0  3  0  0  0  0  0  0
    2.5180   -0.4940    3.3080 C   0  0  0  0  0  3  0  0  0  0  0  0
    3.2450   -0.8380    4.4390 C   0  0  0  0  0  3  0  0  0  0  0  0
    4.5700   -0.4210    4.5700 C   0  0  0  0  0  3  0  0  0  0  0  0
    8.2120    1.4160    1.4530 O   0  0  0  0  0  0  0  0  0  0  0  0
    7.9910    1.4090    0.4880 H   0  0  0  0  0  0  0  0  0  0  0  0
  1  2  1  0  0  0  0
  2  3  2  0  0  0  0
  4  9  1  0  0  0  0
  4  3  1  0  0  0  0
  5  4  2  0  0  0  0
  6  5  1  0  0  0  0
  6  1  2  0  0  0  0
  8  1  1  0  0  0  0
  8  7  1  0  0  0  0
  9 10  2  0  0  0  0
 11  9  1  0  0  0  0
 11 16  1  0  0  0  0
 12 11  2  0  0  0  0
 13 12  1  0  0  0  0
 13 14  2  0  0  0  0
 14 15  1  0  0  0  0
 15 16  2  0  0  0  0
 17  5  1  0  0  0  0
 18 17  1  0  0  0  0
M  END
>  <MODEL>
9

>  <REMARK>
 VINA RESULT:      -4.5      3.883      6.457
  Name = ox1_esm1_f8_ligand
  5 active torsions:
  status: ('A' for Active; 'I' for Inactive)
    1  A    between atoms: C_1  and  O_2
    2  A    between atoms: O_2  and  C_3
    3  A    between atoms: C_6  and  C_7
    4  A    between atoms: C_7  and  C_9
    5  A    between atoms: C_15  and  O_16
                            x       y       z     vdW  Elec       q    Type
                         _______ _______ _______ _____ _____    ______ ____

>  <TORSDO>
F 4

$$$$
