shuffle_control_esm0_ligand
 OpenBabel10092621113D

 20 20  0  0  1  0  0  0  0  0999 V2000
    0.4450   -0.8360   -4.0270 C   0  0  0  0  0  0  0  0  0  0  0  0
   -0.0850   -1.5410   -4.8270 O   0  0  0  0  0  0  0  0  0  0  0  0
    0.4850    0.6550   -4.1270 C   0  0  0  0  0  3  0  0  0  0  0  0
    1.5090    1.3390   -3.6480 C   0  0  0  0  0  3  0  0  0  0  0  0
    1.5510    2.8310   -3.6010 C   0  0  0  0  0  0  0  0  0  0  0  0
    2.6170    3.4340   -2.9830 C   0  0  0  0  0  3  0  0  0  0  0  0
    2.6940    4.8170   -2.8840 C   0  0  0  0  0  3  0  0  0  0  0  0
    1.6990    5.6120   -3.4210 C   0  0  0  0  0  0  0  0  0  0  0  0
    0.6210    4.9990   -4.0590 C   0  0  0  0  0  3  0  0  0  0  0  0
    0.5520    3.6060   -4.1570 C   0  0  0  0  0  3  0  0  0  0  0  0
    1.7300    6.9590   -3.3370 O   0  0  0  0  0  0  0  0  0  0  0  0
    2.5120    7.5810   -2.3180 C   0  0  0  0  0  1  0  0  0  0  0  0
    1.0760   -1.3420   -2.9380 O   0  0  0  0  0  0  0  0  0  0  0  0
    2.0030   -2.4180   -3.0210 C   0  0  2  0  0  3  0  0  0  0  0  0
    1.7200   -3.5110   -2.0060 C   0  0  0  0  0  2  0  0  0  0  0  0
    0.7330   -3.1780   -0.9260 C   0  0  0  0  0  1  0  0  0  0  0  0
    3.3660   -1.8730   -2.7390 C   0  0  0  0  0  2  0  0  0  0  0  0
    3.4410   -0.9610   -1.5640 C   0  0  0  0  0  3  0  0  0  0  0  0
    4.4180    1.1660   -0.5490 C   0  0  0  0  0  1  0  0  0  0  0  0
    4.1080    0.3660   -1.7660 C   0  0  0  0  0  3  0  0  0  0  0  0
  1 13  1  0  0  0  0
  2  1  2  0  0  0  0
  3  1  1  0  0  0  0
  3  4  2  0  0  0  0
  4  5  1  0  0  0  0
  5  6  1  0  0  0  0
  6  7  2  0  0  0  0
  8 11  1  0  0  0  0
  8  7  1  0  0  0  0
  9  8  2  0  0  0  0
 10  9  1  0  0  0  0
 10  5  2  0  0  0  0
 11 12  1  0  0  0  0
 14 13  1  0  0  0  0
 14 17  1  1  0  0  0
 14 15  1  0  0  0  0
 15 16  1  0  0  0  0
 17 18  1  0  0  0  0
 20 18  2  0  0  0  0
 20 19  1  0  0  0  0
M  END
>  <MODEL>
1

>  <REMARK>
 VINA RESULT:      -5.3      0.000      0.000
  Name = shuffle_control_esm0_ligand
  12 active torsions:
  status: ('A' for Active; 'I' for Inactive)
    1  A    between atoms: C_1  and  C_2
    2  A    between atoms: C_2  and  C_3
    3  A    between atoms: C_3  and  C_4
    4  A    between atoms: C_4  and  C_5
    5  A    between atoms: C_5  and  C_6
    6  A    between atoms: C_5  and  O_8
    7  A    between atoms: C_6  and  C_7
    8  A    between atoms: O_8  and  C_9
    9  A    between atoms: C_9  and  C_11
   10  A    between atoms: C_12  and  C_13
   11  A    between atoms: C_16  and  O_17
   12  A    between atoms: O_17  and  C_18
                            x       y       z     vdW  Elec       q    Type
                         _______ _______ _______ _____ _____    ______ ____

>  <TORSDO>
F 9

$$$$
shuffle_control_esm0_ligand
 OpenBabel10092621113D

 20 20  0  0  1  0  0  0  0  0999 V2000
    0.4700    5.5970   -4.2740 C   0  0  0  0  0  0  0  0  0  0  0  0
    1.1600    6.5520   -4.4440 O   0  0  0  0  0  0  0  0  0  0  0  0
    0.9650    4.3000   -3.7200 C   0  0  0  0  0  3  0  0  0  0  0  0
    2.1890    4.1940   -3.2320 C   0  0  0  0  0  3  0  0  0  0  0  0
    2.7860    2.9010   -2.7830 C   0  0  0  0  0  0  0  0  0  0  0  0
    2.2340    1.7330   -3.2440 C   0  0  0  0  0  3  0  0  0  0  0  0
    2.7300    0.5010   -2.8370 C   0  0  0  0  0  3  0  0  0  0  0  0
    3.8010    0.4330   -1.9660 C   0  0  0  0  0  0  0  0  0  0  0  0
    4.3680    1.6210   -1.5050 C   0  0  0  0  0  3  0  0  0  0  0  0
    3.8650    2.8580   -1.9220 C   0  0  0  0  0  3  0  0  0  0  0  0
    4.3060   -0.7420   -1.5360 O   0  0  0  0  0  0  0  0  0  0  0  0
    4.3490   -1.8550   -2.4280 C   0  0  0  0  0  1  0  0  0  0  0  0
   -0.8490    5.6060   -4.5850 O   0  0  0  0  0  0  0  0  0  0  0  0
   -1.8700    5.4670   -3.6020 C   0  0  2  0  0  3  0  0  0  0  0  0
   -2.8150    4.3180   -3.9000 C   0  0  0  0  0  2  0  0  0  0  0  0
   -2.4810    3.4720   -5.0940 C   0  0  0  0  0  1  0  0  0  0  0  0
   -2.6710    6.7280   -3.5910 C   0  0  0  0  0  2  0  0  0  0  0  0
   -3.0570    7.2330   -4.9380 C   0  0  0  0  0  2  0  0  0  0  0  0
   -5.4790    6.4680   -5.1800 C   0  0  0  0  0  1  0  0  0  0  0  0
   -4.4980    7.5880   -5.1510 C   0  0  0  0  0  2  0  0  0  0  0  0
  1  3  1  0  0  0  0
  2  1  2  0  0  0  0
  3  4  2  0  0  0  0
  4  5  1  0  0  0  0
  5 10  1  0  0  0  0
  6  7  1  0  0  0  0
  6  5  2  0  0  0  0
  7  8  2  0  0  0  0
  8 11  1  0  0  0  0
  8  9  1  0  0  0  0
 10  9  2  0  0  0  0
 12 11  1  0  0  0  0
 13  1  1  0  0  0  0
 13 14  1  0  0  0  0
 14 15  1  6  0  0  0
 14 17  1  0  0  0  0
 16 15  1  0  0  0  0
 18 17  1  0  0  0  0
 19 20  1  0  0  0  0
 20 18  1  0  0  0  0
M  END
>  <MODEL>
2

>  <REMARK>
 VINA RESULT:      -5.2      2.937      7.763
  Name = shuffle_control_esm0_ligand
  12 active torsions:
  status: ('A' for Active; 'I' for Inactive)
    1  A    between atoms: C_1  and  C_2
    2  A    between atoms: C_2  and  C_3
    3  A    between atoms: C_3  and  C_4
    4  A    between atoms: C_4  and  C_5
    5  A    between atoms: C_5  and  C_6
    6  A    between atoms: C_5  and  O_8
    7  A    between atoms: C_6  and  C_7
    8  A    between atoms: O_8  and  C_9
    9  A    between atoms: C_9  and  C_11
   10  A    between atoms: C_12  and  C_13
   11  A    between atoms: C_16  and  O_17
   12  A    between atoms: O_17  and  C_18
                            x       y       z     vdW  Elec       q    Type
                         _______ _______ _______ _____ _____    ______ ____

>  <TORSDO>
F 9

$$$$
shuffle_control_esm0_ligand
 OpenBabel10092621113D

 20 20  0  0  1  0  0  0  0  0999 V2000
   -0.4330    6.4430   -4.4470 C   0  0  0  0  0  0  0  0  0  0  0  0
   -0.1520    7.1840   -5.3360 O   0  0  0  0  0  0  0  0  0  0  0  0
    0.5450    5.5240   -3.7890 C   0  0  0  0  0  3  0  0  0  0  0  0
    0.8360    4.3500   -4.3210 C   0  0  0  0  0  3  0  0  0  0  0  0
    1.7040    3.3360   -3.6510 C   0  0  0  0  0  0  0  0  0  0  0  0
    2.7350    3.7780   -2.8620 C   0  0  0  0  0  3  0  0  0  0  0  0
    3.5900    2.8810   -2.2370 C   0  0  0  0  0  3  0  0  0  0  0  0
    3.4080    1.5200   -2.3930 C   0  0  0  0  0  0  0  0  0  0  0  0
    2.3540    1.0690   -3.1870 C   0  0  0  0  0  3  0  0  0  0  0  0
    1.4950    1.9800   -3.8100 C   0  0  0  0  0  3  0  0  0  0  0  0
    4.2240    0.6140   -1.8130 O   0  0  0  0  0  0  0  0  0  0  0  0
    3.6950   -0.6460   -1.4030 C   0  0  0  0  0  1  0  0  0  0  0  0
   -1.6930    6.3650   -3.9550 O   0  0  0  0  0  0  0  0  0  0  0  0
   -2.7200    5.6130   -4.5920 C   0  0  2  0  0  3  0  0  0  0  0  0
   -4.0160    6.3920   -4.7260 C   0  0  0  0  0  2  0  0  0  0  0  0
   -5.2350    5.6000   -5.0990 C   0  0  0  0  0  1  0  0  0  0  0  0
   -2.9960    4.4080   -3.7540 C   0  0  0  0  0  2  0  0  0  0  0  0
   -2.4730    3.1290   -4.3100 C   0  0  0  0  0  2  0  0  0  0  0  0
   -1.5220    2.6940   -6.6380 C   0  0  0  0  0  1  0  0  0  0  0  0
   -2.7170    2.8620   -5.7650 C   0  0  0  0  0  2  0  0  0  0  0  0
  1 13  1  0  0  0  0
  1  3  1  0  0  0  0
  2  1  2  0  0  0  0
  4  3  2  0  0  0  0
  4  5  1  0  0  0  0
  5  6  1  0  0  0  0
  6  7  2  0  0  0  0
  8  7  1  0  0  0  0
  8 11  1  0  0  0  0
  9  8  2  0  0  0  0
 10  5  2  0  0  0  0
 10  9  1  0  0  0  0
 11 12  1  0  0  0  0
 14 15  1  1  0  0  0
 14 13  1  0  0  0  0
 14 17  1  0  0  0  0
 16 15  1  0  0  0  0
 18 17  1  0  0  0  0
 19 20  1  0  0  0  0
 20 18  1  0  0  0  0
M  END
>  <MODEL>
3

>  <REMARK>
 VINA RESULT:      -5.1      2.870      7.216
  Name = shuffle_control_esm0_ligand
  12 active torsions:
  status: ('A' for Active; 'I' for Inactive)
    1  A    between atoms: C_1  and  C_2
    2  A    between atoms: C_2  and  C_3
    3  A    between atoms: C_3  and  C_4
    4  A    between atoms: C_4  and  C_5
    5  A    between atoms: C_5  and  C_6
    6  A    between atoms: C_5  and  O_8
    7  A    between atoms: C_6  and  C_7
    8  A    between atoms: O_8  and  C_9
    9  A    between atoms: C_9  and  C_11
   10  A    between atoms: C_12  and  C_13
   11  A    between atoms: C_16  and  O_17
   12  A    between atoms: O_17  and  C_18
                            x       y       z     vdW  Elec       q    Type
                         _______ _______ _______ _____ _____    ______ ____

>  <TORSDO>
F 9

$$$$
shuffle_control_esm0_ligand
 OpenBabel10092621113D

 20 20  0  0  1  0  0  0  0  0999 V2000
    0.6990    5.7140   -4.3040 C   0  0  0  0  0  0  0  0  0  0  0  0
    1.3460    6.3710   -5.0580 O   0  0  0  0  0  0  0  0  0  0  0  0
    1.1320    4.3840   -3.7770 C   0  0  0  0  0  3  0  0  0  0  0  0
    2.3000    4.2410   -3.1750 C   0  0  0  0  0  3  0  0  0  0  0  0
    2.8460    2.9200   -2.7420 C   0  0  0  0  0  0  0  0  0  0  0  0
    2.2510    1.7800   -3.2200 C   0  0  0  0  0  3  0  0  0  0  0  0
    2.6980    0.5250   -2.8290 C   0  0  0  0  0  3  0  0  0  0  0  0
    3.7620    0.4040   -1.9550 C   0  0  0  0  0  0  0  0  0  0  0  0
    4.3720    1.5630   -1.4750 C   0  0  0  0  0  3  0  0  0  0  0  0
    3.9180    2.8240   -1.8770 C   0  0  0  0  0  3  0  0  0  0  0  0
    4.2190   -0.7960   -1.5400 O   0  0  0  0  0  0  0  0  0  0  0  0
    4.2630   -1.8860   -2.4590 C   0  0  0  0  0  1  0  0  0  0  0  0
   -0.5130    6.1250   -3.8590 O   0  0  0  0  0  0  0  0  0  0  0  0
   -1.6840    6.0780   -4.6680 C   0  0  2  0  0  3  0  0  0  0  0  0
   -2.0990    7.4480   -5.1740 C   0  0  0  0  0  2  0  0  0  0  0  0
   -1.6820    8.6220   -4.3360 C   0  0  0  0  0  1  0  0  0  0  0  0
   -2.7990    5.5420   -3.8320 C   0  0  0  0  0  2  0  0  0  0  0  0
   -2.9050    4.0550   -3.8130 C   0  0  0  0  0  2  0  0  0  0  0  0
   -1.6180    2.0130   -4.6380 C   0  0  0  0  0  1  0  0  0  0  0  0
   -2.2810    3.3090   -4.9530 C   0  0  0  0  0  2  0  0  0  0  0  0
  1 13  1  0  0  0  0
  1  3  1  0  0  0  0
  2  1  2  0  0  0  0
  3  4  2  0  0  0  0
  4  5  1  0  0  0  0
  5 10  1  0  0  0  0
  6  7  1  0  0  0  0
  6  5  2  0  0  0  0
  7  8  2  0  0  0  0
  8 11  1  0  0  0  0
  8  9  1  0  0  0  0
 10  9  2  0  0  0  0
 12 11  1  0  0  0  0
 14 15  1  1  0  0  0
 14 13  1  0  0  0  0
 14 17  1  0  0  0  0
 15 16  1  0  0  0  0
 17 18  1  0  0  0  0
 20 19  1  0  0  0  0
 20 18  1  0  0  0  0
M  END
>  <MODEL>
4

>  <REMARK>
 VINA RESULT:      -5.1      2.372      7.510
  Name = shuffle_control_esm0_ligand
  12 active torsions:
  status: ('A' for Active; 'I' for Inactive)
    1  A    between atoms: C_1  and  C_2
    2  A    between atoms: C_2  and  C_3
    3  A    between atoms: C_3  and  C_4
    4  A    between atoms: C_4  and  C_5
    5  A    between atoms: C_5  and  C_6
    6  A    between atoms: C_5  and  O_8
    7  A    between atoms: C_6  and  C_7
    8  A    between atoms: O_8  and  C_9
    9  A    between atoms: C_9  and  C_11
   10  A    between atoms: C_12  and  C_13
   11  A    between atoms: C_16  and  O_17
   12  A    between atoms: O_17  and  C_18
                            x       y       z     vdW  Elec       q    Type
                         _______ _______ _______ _____ _____    ______ ____

>  <TORSDO>
F 9

$$$$
shuffle_control_esm0_ligand
 OpenBabel10092621113D

 20 20  0  0  1  0  0  0  0  0999 V2000
    2.4660    0.7630   -4.6990 C   0  0  0  0  0  0  0  0  0  0  0  0
    2.7290   -0.1120   -5.4620 O   0  0  0  0  0  0  0  0  0  0  0  0
    1.1090    1.3740   -4.5680 C   0  0  0  0  0  3  0  0  0  0  0  0
    0.9330    2.6740   -4.7270 C   0  0  0  0  0  3  0  0  0  0  0  0
   -0.3700    3.3630   -4.4840 C   0  0  0  0  0  0  0  0  0  0  0  0
   -0.3520    4.6930   -4.1460 C   0  0  0  0  0  3  0  0  0  0  0  0
   -1.5300    5.3770   -3.8820 C   0  0  0  0  0  3  0  0  0  0  0  0
   -2.7480    4.7290   -3.9660 C   0  0  0  0  0  0  0  0  0  0  0  0
   -2.7670    3.3790   -4.3180 C   0  0  0  0  0  3  0  0  0  0  0  0
   -1.5760    2.6980   -4.5870 C   0  0  0  0  0  3  0  0  0  0  0  0
   -3.9160    5.3540   -3.7050 O   0  0  0  0  0  0  0  0  0  0  0  0
   -4.7570    5.7500   -4.7880 C   0  0  0  0  0  1  0  0  0  0  0  0
    3.4010    1.2930   -3.8730 O   0  0  0  0  0  0  0  0  0  0  0  0
    3.3700    1.1110   -2.4620 C   0  0  2  0  0  3  0  0  0  0  0  0
    4.0880    2.2200   -1.7140 C   0  0  0  0  0  2  0  0  0  0  0  0
    3.7520    3.6250   -2.1230 C   0  0  0  0  0  1  0  0  0  0  0  0
    4.0630   -0.1750   -2.1490 C   0  0  0  0  0  2  0  0  0  0  0  0
    3.2600   -1.1350   -1.3410 C   0  0  0  0  0  3  0  0  0  0  0  0
    1.4660   -2.9490   -1.3270 C   0  0  0  0  0  1  0  0  0  0  0  0
    2.0830   -1.7780   -2.0100 C   0  0  0  0  0  3  0  0  0  0  0  0
  1  3  1  0  0  0  0
  1 13  1  0  0  0  0
  2  1  2  0  0  0  0
  4  3  2  0  0  0  0
  4  5  1  0  0  0  0
  5  6  1  0  0  0  0
  6  7  2  0  0  0  0
  8  7  1  0  0  0  0
  8 11  1  0  0  0  0
  9  8  2  0  0  0  0
 10  5  2  0  0  0  0
 10  9  1  0  0  0  0
 12 11  1  0  0  0  0
 13 14  1  0  0  0  0
 14 17  1  6  0  0  0
 14 15  1  0  0  0  0
 16 15  1  0  0  0  0
 17 18  1  0  0  0  0
 20 18  2  0  0  0  0
 20 19  1  0  0  0  0
M  END
>  <MODEL>
5

>  <REMARK>
 VINA RESULT:      -5.1      2.615      4.225
  Name = shuffle_control_esm0_ligand
  12 active torsions:
  status: ('A' for Active; 'I' for Inactive)
    1  A    between atoms: C_1  and  C_2
    2  A    between atoms: C_2  and  C_3
    3  A    between atoms: C_3  and  C_4
    4  A    between atoms: C_4  and  C_5
    5  A    between atoms: C_5  and  C_6
    6  A    between atoms: C_5  and  O_8
    7  A    between atoms: C_6  and  C_7
    8  A    between atoms: O_8  and  C_9
    9  A    between atoms: C_9  and  C_11
   10  A    between atoms: C_12  and  C_13
   11  A    between atoms: C_16  and  O_17
   12  A    between atoms: O_17  and  C_18
                            x       y       z     vdW  Elec       q    Type
                         _______ _______ _______ _____ _____    ______ ____

>  <TORSDO>
F 9

$$$$
shuffle_control_esm0_ligand
 OpenBabel10092621113D

 20 20  0  0  1  0  0  0  0  0999 V2000
    2.2500    1.1710   -3.9850 C   0  0  0  0  0  0  0  0  0  0  0  0
    2.7330    0.5410   -4.8720 O   0  0  0  0  0  0  0  0  0  0  0  0
    0.8740    1.7520   -4.0300 C   0  0  0  0  0  3  0  0  0  0  0  0
    0.6800    3.0110   -4.3810 C   0  0  0  0  0  3  0  0  0  0  0  0
   -0.6510    3.6870   -4.3230 C   0  0  0  0  0  0  0  0  0  0  0  0
   -0.6960    5.0100   -3.9640 C   0  0  0  0  0  3  0  0  0  0  0  0
   -1.9070    5.6800   -3.8650 C   0  0  0  0  0  3  0  0  0  0  0  0
   -3.0930    5.0250   -4.1410 C   0  0  0  0  0  0  0  0  0  0  0  0
   -3.0460    3.6820   -4.5150 C   0  0  0  0  0  3  0  0  0  0  0  0
   -1.8210    3.0150   -4.6160 C   0  0  0  0  0  3  0  0  0  0  0  0
   -4.2920    5.6360   -4.0450 O   0  0  0  0  0  0  0  0  0  0  0  0
   -5.2410    5.4890   -5.1010 C   0  0  0  0  0  1  0  0  0  0  0  0
    2.9290    1.4270   -2.8390 O   0  0  0  0  0  0  0  0  0  0  0  0
    4.2530    1.9490   -2.8330 C   0  0  2  0  0  3  0  0  0  0  0  0
    4.8230    2.0760   -1.4320 C   0  0  0  0  0  2  0  0  0  0  0  0
    4.3990    1.0300   -0.4420 C   0  0  0  0  0  1  0  0  0  0  0  0
    4.2110    3.3150   -3.4360 C   0  0  0  0  0  2  0  0  0  0  0  0
    3.9910    4.4200   -2.4610 C   0  0  0  0  0  2  0  0  0  0  0  0
    2.9800    6.7450   -2.1740 C   0  0  0  0  0  1  0  0  0  0  0  0
    2.8700    5.3740   -2.7460 C   0  0  0  0  0  2  0  0  0  0  0  0
  1 13  1  0  0  0  0
  2  1  2  0  0  0  0
  3  1  1  0  0  0  0
  4  5  1  0  0  0  0
  4  3  2  0  0  0  0
  5  6  1  0  0  0  0
  6  7  2  0  0  0  0
  8 11  1  0  0  0  0
  8  7  1  0  0  0  0
  9  8  2  0  0  0  0
 10  9  1  0  0  0  0
 10  5  2  0  0  0  0
 12 11  1  0  0  0  0
 13 14  1  0  0  0  0
 14 17  1  1  0  0  0
 14 15  1  0  0  0  0
 15 16  1  0  0  0  0
 17 18  1  0  0  0  0
 20 18  1  0  0  0  0
 20 19  1  0  0  0  0
M  END
>  <MODEL>
6

>  <REMARK>
 VINA RESULT:      -5.1      2.865      4.764
  Name = shuffle_control_esm0_ligand
  12 active torsions:
  status: ('A' for Active; 'I' for Inactive)
    1  A    between atoms: C_1  and  C_2
    2  A    between atoms: C_2  and  C_3
    3  A    between atoms: C_3  and  C_4
    4  A    between atoms: C_4  and  C_5
    5  A    between atoms: C_5  and  C_6
    6  A    between atoms: C_5  and  O_8
    7  A    between atoms: C_6  and  C_7
    8  A    between atoms: O_8  and  C_9
    9  A    between atoms: C_9  and  C_11
   10  A    between atoms: C_12  and  C_13
   11  A    between atoms: C_16  and  O_17
   12  A    between atoms: O_17  and  C_18
                            x       y       z     vdW  Elec       q    Type
                         _______ _______ _______ _____ _____    ______ ____

>  <TORSDO>
F 9

$$$$
shuffle_control_esm0_ligand
 OpenBabel10092621113D

 20 20  0  0  1  0  0  0  0  0999 V2000
   -2.8140    3.3230   -5.3330 C   0  0  0  0  0  0  0  0  0  0  0  0
   -2.9810    2.8920   -6.4300 O   0  0  0  0  0  0  0  0  0  0  0  0
   -1.6110    3.0270   -4.4970 C   0  0  0  0  0  3  0  0  0  0  0  0
   -0.4770    3.6800   -4.6850 C   0  0  0  0  0  3  0  0  0  0  0  0
    0.7920    3.3450   -3.9740 C   0  0  0  0  0  0  0  0  0  0  0  0
    1.5440    4.3720   -3.4620 C   0  0  0  0  0  3  0  0  0  0  0  0
    2.7480    4.1220   -2.8170 C   0  0  0  0  0  3  0  0  0  0  0  0
    3.2040    2.8260   -2.6690 C   0  0  0  0  0  0  0  0  0  0  0  0
    2.4350    1.7800   -3.1800 C   0  0  0  0  0  3  0  0  0  0  0  0
    1.2220    2.0410   -3.8260 C   0  0  0  0  0  3  0  0  0  0  0  0
    4.3730    2.5400   -2.0590 O   0  0  0  0  0  0  0  0  0  0  0  0
    4.4120    1.5250   -1.0560 C   0  0  0  0  0  1  0  0  0  0  0  0
   -3.7260    4.1280   -4.7360 O   0  0  0  0  0  0  0  0  0  0  0  0
   -3.7030    5.5450   -4.8700 C   0  0  2  0  0  3  0  0  0  0  0  0
   -3.0920    6.2360   -3.6640 C   0  0  0  0  0  2  0  0  0  0  0  0
   -1.8620    7.0570   -3.9190 C   0  0  0  0  0  1  0  0  0  0  0  0
   -5.1150    6.0170   -5.0010 C   0  0  0  0  0  2  0  0  0  0  0  0
   -5.2930    7.2110   -5.8750 C   0  0  0  0  0  2  0  0  0  0  0  0
   -7.4840    8.2810   -5.1230 C   0  0  0  0  0  1  0  0  0  0  0  0
   -6.0080    8.3910   -5.2880 C   0  0  0  0  0  2  0  0  0  0  0  0
  1 13  1  0  0  0  0
  1  3  1  0  0  0  0
  2  1  2  0  0  0  0
  4  3  2  0  0  0  0
  4  5  1  0  0  0  0
  5 10  2  0  0  0  0
  5  6  1  0  0  0  0
  6  7  2  0  0  0  0
  7  8  1  0  0  0  0
  8 11  1  0  0  0  0
  9  8  2  0  0  0  0
 10  9  1  0  0  0  0
 11 12  1  0  0  0  0
 14 17  1  1  0  0  0
 14 13  1  0  0  0  0
 14 15  1  0  0  0  0
 16 15  1  0  0  0  0
 18 20  1  0  0  0  0
 18 17  1  0  0  0  0
 20 19  1  0  0  0  0
M  END
>  <MODEL>
7

>  <REMARK>
 VINA RESULT:      -5.0      4.357      7.978
  Name = shuffle_control_esm0_ligand
  12 active torsions:
  status: ('A' for Active; 'I' for Inactive)
    1  A    between atoms: C_1  and  C_2
    2  A    between atoms: C_2  and  C_3
    3  A    between atoms: C_3  and  C_4
    4  A    between atoms: C_4  and  C_5
    5  A    between atoms: C_5  and  C_6
    6  A    between atoms: C_5  and  O_8
    7  A    between atoms: C_6  and  C_7
    8  A    between atoms: O_8  and  C_9
    9  A    between atoms: C_9  and  C_11
   10  A    between atoms: C_12  and  C_13
   11  A    between atoms: C_16  and  O_17
   12  A    between atoms: O_17  and  C_18
                            x       y       z     vdW  Elec       q    Type
                         _______ _______ _______ _____ _____    ______ ____

>  <TORSDO>
F 9

$$$$
shuffle_control_esm0_ligand
 OpenBabel10092621113D

 20 20  0  0  1  0  0  0  0  0999 V2000
    1.6900    0.4550   -4.3810 C   0  0  0  0  0  0  0  0  0  0  0  0
    2.4060    0.3140   -5.3220 O   0  0  0  0  0  0  0  0  0  0  0  0
    0.4340    1.2650   -4.4050 C   0  0  0  0  0  3  0  0  0  0  0  0
    0.4770    2.5840   -4.3510 C   0  0  0  0  0  3  0  0  0  0  0  0
   -0.7400    3.4430   -4.2420 C   0  0  0  0  0  0  0  0  0  0  0  0
   -1.9660    2.8690   -4.4630 C   0  0  0  0  0  3  0  0  0  0  0  0
   -3.1290    3.6250   -4.4030 C   0  0  0  0  0  3  0  0  0  0  0  0
   -3.0700    4.9740   -4.1070 C   0  0  0  0  0  0  0  0  0  0  0  0
   -1.8240    5.5570   -3.8740 C   0  0  0  0  0  3  0  0  0  0  0  0
   -0.6580    4.7870   -3.9330 C   0  0  0  0  0  3  0  0  0  0  0  0
   -4.1740    5.7480   -4.0510 O   0  0  0  0  0  0  0  0  0  0  0  0
   -5.1710    5.6230   -5.0650 C   0  0  0  0  0  1  0  0  0  0  0  0
    1.9660   -0.1150   -3.1830 O   0  0  0  0  0  0  0  0  0  0  0  0
    2.8670   -1.2080   -3.0430 C   0  0  2  0  0  3  0  0  0  0  0  0
    2.3110   -2.3140   -2.1640 C   0  0  0  0  0  2  0  0  0  0  0  0
    0.8150   -2.4360   -2.1130 C   0  0  0  0  0  1  0  0  0  0  0  0
    4.1150   -0.6960   -2.3990 C   0  0  0  0  0  2  0  0  0  0  0  0
    3.9050   -0.0060   -1.0950 C   0  0  0  0  0  2  0  0  0  0  0  0
    4.1380    2.3480   -2.0500 C   0  0  0  0  0  1  0  0  0  0  0  0
    4.4490    1.3840   -0.9580 C   0  0  0  0  0  2  0  0  0  0  0  0
  1 13  1  0  0  0  0
  2  1  2  0  0  0  0
  3  1  1  0  0  0  0
  3  4  2  0  0  0  0
  4  5  1  0  0  0  0
  5 10  1  0  0  0  0
  6  7  1  0  0  0  0
  6  5  2  0  0  0  0
  7  8  2  0  0  0  0
  8 11  1  0  0  0  0
  8  9  1  0  0  0  0
 10  9  2  0  0  0  0
 12 11  1  0  0  0  0
 13 14  1  0  0  0  0
 14 17  1  1  0  0  0
 14 15  1  0  0  0  0
 15 16  1  0  0  0  0
 17 18  1  0  0  0  0
 18 20  1  0  0  0  0
 19 20  1  0  0  0  0
M  END
>  <MODEL>
8

>  <REMARK>
 VINA RESULT:      -5.0      2.648      3.474
  Name = shuffle_control_esm0_ligand
  12 active torsions:
  status: ('A' for Active; 'I' for Inactive)
    1  A    between atoms: C_1  and  C_2
    2  A    between atoms: C_2  and  C_3
    3  A    between atoms: C_3  and  C_4
    4  A    between atoms: C_4  and  C_5
    5  A    between atoms: C_5  and  C_6
    6  A    between atoms: C_5  and  O_8
    7  A    between atoms: C_6  and  C_7
    8  A    between atoms: O_8  and  C_9
    9  A    between atoms: C_9  and  C_11
   10  A    between atoms: C_12  and  C_13
   11  A    between atoms: C_16  and  O_17
   12  A    between atoms: O_17  and  C_18
                            x       y       z     vdW  Elec       q    Type
                         _______ _______ _______ _____ _____    ______ ____

>  <TORSDO>
F 9

$$$$
shuffle_control_esm0_ligand
 OpenBabel10092621113D

 20 20  0  0  1  0  0  0  0  0999 V2000
    2.0500    5.4680   -3.7190 C   0  0  0  0  0  0  0  0  0  0  0  0
    2.9420    5.9450   -4.3460 O   0  0  0  0  0  0  0  0  0  0  0  0
    0.6230    5.8930   -3.8450 C   0  0  0  0  0  3  0  0  0  0  0  0
   -0.3440    4.9980   -3.9550 C   0  0  0  0  0  3  0  0  0  0  0  0
   -1.7710    5.3570   -4.2110 C   0  0  0  0  0  0  0  0  0  0  0  0
   -2.6760    4.3420   -4.3930 C   0  0  0  0  0  3  0  0  0  0  0  0
   -4.0100    4.6170   -4.6630 C   0  0  0  0  0  3  0  0  0  0  0  0
   -4.4510    5.9240   -4.7430 C   0  0  0  0  0  0  0  0  0  0  0  0
   -3.5330    6.9560   -4.5490 C   0  0  0  0  0  3  0  0  0  0  0  0
   -2.1920    6.6710   -4.2740 C   0  0  0  0  0  3  0  0  0  0  0  0
   -5.7360    6.2340   -5.0150 O   0  0  0  0  0  0  0  0  0  0  0  0
   -6.0570    7.5400   -5.4930 C   0  0  0  0  0  1  0  0  0  0  0  0
    2.2630    4.4830   -2.8120 O   0  0  0  0  0  0  0  0  0  0  0  0
    2.8580    3.2370   -3.1590 C   0  0  2  0  0  3  0  0  0  0  0  0
    1.8400    2.1180   -3.2840 C   0  0  0  0  0  2  0  0  0  0  0  0
    1.2790    1.8770   -4.6550 C   0  0  0  0  0  1  0  0  0  0  0  0
    3.8140    2.8660   -2.0720 C   0  0  0  0  0  2  0  0  0  0  0  0
    4.3850    1.4950   -2.1850 C   0  0  0  0  0  2  0  0  0  0  0  0
    3.5720   -0.7970   -1.4140 C   0  0  0  0  0  1  0  0  0  0  0  0
    4.1150    0.5430   -1.0590 C   0  0  0  0  0  2  0  0  0  0  0  0
  1 13  1  0  0  0  0
  2  1  2  0  0  0  0
  3  1  1  0  0  0  0
  4  3  2  0  0  0  0
  5  4  1  0  0  0  0
  6  5  2  0  0  0  0
  7  6  1  0  0  0  0
  8  7  2  0  0  0  0
  8  9  1  0  0  0  0
  9 10  2  0  0  0  0
 10  5  1  0  0  0  0
 11  8  1  0  0  0  0
 12 11  1  0  0  0  0
 14 15  1  1  0  0  0
 14 13  1  0  0  0  0
 14 17  1  0  0  0  0
 16 15  1  0  0  0  0
 18 17  1  0  0  0  0
 18 20  1  0  0  0  0
 19 20  1  0  0  0  0
M  END
>  <MODEL>
9

>  <REMARK>
 VINA RESULT:      -5.0      3.386      5.688
  Name = shuffle_control_esm0_ligand
  12 active torsions:
  status: ('A' for Active; 'I' for Inactive)
    1  A    between atoms: C_1  and  C_2
    2  A    between atoms: C_2  and  C_3
    3  A    between atoms: C_3  and  C_4
    4  A    between atoms: C_4  and  C_5
    5  A    between atoms: C_5  and  C_6
    6  A    between atoms: C_5  and  O_8
    7  A    between atoms: C_6  and  C_7
    8  A    between atoms: O_8  and  C_9
    9  A    between atoms: C_9  and  C_11
   10  A    between atoms: C_12  and  C_13
   11  A    between atoms: C_16  and  O_17
   12  A    between atoms: O_17  and  C_18
                            x       y       z     vdW  Elec       q    Type
                         _______ _______ _______ _____ _____    ______ ____

>  <TORSDO>
F 9

$$$$
