ox2_shuffle_dockpose4
     RDKit          3D

 17 18  0  0  0  0  0  0  0  0999 V2000
  -10.4290   -4.7480    0.6090 C   0  0  0  0  0  0  0  0  0  0  0  0
   -9.8740   -5.9190    0.0660 O   0  0  0  0  0  0  0  0  0  0  0  0
   -8.6190   -6.3250    0.4440 C   0  0  0  0  0  0  0  0  0  0  0  0
   -8.5170   -7.5260    1.1300 C   0  0  0  0  0  0  0  0  0  0  0  0
   -7.2880   -7.9920    1.5450 C   0  0  0  0  0  0  0  0  0  0  0  0
   -6.1350   -7.2660    1.2750 C   0  0  0  0  0  0  0  0  0  0  0  0
   -4.7900   -7.7730    1.7250 C   0  0  0  0  0  0  0  0  0  0  0  0
   -4.0650   -8.3300    0.9320 O   0  0  0  0  0  0  0  0  0  0  0  0
   -4.3660   -7.6100    3.1310 C   0  0  0  0  0  0  0  0  0  0  0  0
   -4.3940   -8.6870    4.0090 C   0  0  0  0  0  0  0  0  0  0  0  0
   -4.0050   -8.5120    5.3280 C   0  0  0  0  0  0  0  0  0  0  0  0
   -3.5770   -7.2620    5.7700 C   0  0  0  0  0  0  0  0  0  0  0  0
   -3.5630   -6.1810    4.8970 C   0  0  0  0  0  0  0  0  0  0  0  0
   -3.9710   -6.3490    3.5720 C   0  0  0  0  0  0  0  0  0  0  0  0
   -6.2320   -6.0560    0.5730 C   0  0  0  0  0  0  0  0  0  0  0  0
   -5.1060   -5.3400    0.3000 O   0  0  0  0  0  0  0  0  0  0  0  0
   -7.4790   -5.5960    0.1670 C   0  0  0  0  0  0  0  0  0  0  0  0
  2  1  1  0
  3  2  1  0
  4  3  1  0
  5  4  2  0
  6  5  1  0
  7  6  1  0
  8  7  2  0
  9  7  1  0
 10  9  2  0
 11 10  1  0
 12 11  2  0
 13 12  1  0
 14 13  2  0
 14  9  1  0
 15  6  2  0
 16 15  1  0
 17  3  2  0
 17 15  1  0
M  END
