ox2_shuffle_esm0_dockpose1
     RDKit          3D

 17 18  0  0  0  0  0  0  0  0999 V2000
    2.7120   -7.9260    2.3170 C   0  0  0  0  0  0  0  0  0  0  0  0
    1.9060   -8.0860    1.1450 O   0  0  0  0  0  0  0  0  0  0  0  0
    0.8930   -7.2320    0.8740 C   0  0  0  0  0  0  0  0  0  0  0  0
   -0.2770   -7.2100    1.6240 C   0  0  0  0  0  0  0  0  0  0  0  0
   -1.2830   -6.3380    1.2900 C   0  0  0  0  0  0  0  0  0  0  0  0
   -1.1540   -5.4860    0.2180 C   0  0  0  0  0  0  0  0  0  0  0  0
   -2.2240   -4.5370   -0.1930 C   0  0  0  0  0  0  0  0  0  0  0  0
   -2.7650   -4.7440   -1.2490 O   0  0  0  0  0  0  0  0  0  0  0  0
   -2.7170   -3.4060    0.6170 C   0  0  0  0  0  0  0  0  0  0  0  0
   -4.0750   -3.0920    0.5760 C   0  0  0  0  0  0  0  0  0  0  0  0
   -4.5820   -2.0610    1.3340 C   0  0  0  0  0  0  0  0  0  0  0  0
   -3.7510   -1.3140    2.1440 C   0  0  0  0  0  0  0  0  0  0  0  0
   -2.4070   -1.6250    2.2000 C   0  0  0  0  0  0  0  0  0  0  0  0
   -1.9050   -2.6700    1.4450 C   0  0  0  0  0  0  0  0  0  0  0  0
    0.0240   -5.4950   -0.5170 C   0  0  0  0  0  0  0  0  0  0  0  0
    0.1520   -4.6290   -1.5580 O   0  0  0  0  0  0  0  0  0  0  0  0
    1.0360   -6.3760   -0.1890 C   0  0  0  0  0  0  0  0  0  0  0  0
  2  1  1  0
  3  2  1  0
  4  3  1  0
  5  4  2  0
  6  5  1  0
  7  6  1  0
  8  7  2  0
  9  7  1  0
 10  9  2  0
 11 10  1  0
 12 11  2  0
 13 12  1  0
 14 13  2  0
 14  9  1  0
 15  6  2  0
 16 15  1  0
 17 15  1  0
 17  3  2  0
M  END
$$$$
