ox2_shuffle_esm0_ligand
     RDKit          3D

 29 30  0  0  0  0  0  0  0  0999 V2000
    5.2463   -2.6170    1.6681 C   0  0  0  0  0  0  0  0  0  0  0  0
    4.2952   -2.1666    0.6991 O   0  0  0  0  0  0  0  0  0  0  0  0
    4.1717   -0.8534    0.4005 C   0  0  0  0  0  0  0  0  0  0  0  0
    4.6127    0.1462    1.2589 C   0  0  0  0  0  0  0  0  0  0  0  0
    4.4417    1.4638    0.9150 C   0  0  0  0  0  0  0  0  0  0  0  0
    3.8326    1.8126   -0.2684 C   0  0  0  0  0  0  0  0  0  0  0  0
    3.6083    3.2258   -0.6750 C   0  0  0  0  0  0  0  0  0  0  0  0
    3.5478    3.4545   -1.8564 O   0  0  0  0  0  0  0  0  0  0  0  0
    3.3888    4.3549    0.2508 C   0  0  0  0  0  0  0  0  0  0  0  0
    3.0643    5.6038   -0.2776 C   0  0  0  0  0  0  0  0  0  0  0  0
    2.8287    6.6777    0.5501 C   0  0  0  0  0  0  0  0  0  0  0  0
    2.9148    6.5377    1.9205 C   0  0  0  0  0  0  0  0  0  0  0  0
    3.2241    5.3016    2.4531 C   0  0  0  0  0  0  0  0  0  0  0  0
    3.4485    4.2230    1.6166 C   0  0  0  0  0  0  0  0  0  0  0  0
    3.4113    0.8127   -1.1344 C   0  0  0  0  0  0  0  0  0  0  0  0
    2.8349    1.1692   -2.3138 O   0  0  0  0  0  0  0  0  0  0  0  0
    3.5752   -0.5149   -0.7885 C   0  0  0  0  0  0  0  0  0  0  0  0
    5.7900   -1.7529    2.0774 H   0  0  0  0  0  0  0  0  0  0  0  0
    4.7214   -3.1390    2.4818 H   0  0  0  0  0  0  0  0  0  0  0  0
    5.9586   -3.3056    1.1902 H   0  0  0  0  0  0  0  0  0  0  0  0
    5.0971   -0.1175    2.2107 H   0  0  0  0  0  0  0  0  0  0  0  0
    4.7965    2.2522    1.5950 H   0  0  0  0  0  0  0  0  0  0  0  0
    2.9958    5.7320   -1.3680 H   0  0  0  0  0  0  0  0  0  0  0  0
    2.5699    7.6549    0.1163 H   0  0  0  0  0  0  0  0  0  0  0  0
    2.7392    7.4001    2.5804 H   0  0  0  0  0  0  0  0  0  0  0  0
    3.2921    5.1747    3.5436 H   0  0  0  0  0  0  0  0  0  0  0  0
    3.6792    3.2404    2.0538 H   0  0  0  0  0  0  0  0  0  0  0  0
    2.5276    0.4715   -2.9454 H   0  0  0  0  0  0  0  0  0  0  0  0
    3.2259   -1.3049   -1.4698 H   0  0  0  0  0  0  0  0  0  0  0  0
  2  1  1  0
  3  2  1  0
  4  3  1  0
  5  4  2  0
  6  5  1  0
  7  6  1  0
  8  7  2  0
  9  7  1  0
 10  9  2  0
 11 10  1  0
 12 11  2  0
 13 12  1  0
 14 13  2  0
 14  9  1  0
 15  6  2  0
 16 15  1  0
 17 15  1  0
 17  3  2  0
  1 18  1  0
  1 19  1  0
  1 20  1  0
  4 21  1  0
  5 22  1  0
 10 23  1  0
 11 24  1  0
 12 25  1  0
 13 26  1  0
 14 27  1  0
 16 28  1  0
 17 29  1  0
M  END
$$$$
