ox2_shuffle_esm0_ligand
 OpenBabel10092621223D

 18 19  0  0  0  0  0  0  0  0999 V2000
   -3.2720    2.9800   -4.7990 C   0  0  0  0  0  0  0  0  0  0  0  0
   -2.3780    3.5500   -3.9010 C   0  0  0  0  0  3  0  0  0  0  0  0
   -2.5310    3.3310   -2.5550 C   0  0  0  0  0  3  0  0  0  0  0  0
   -3.5570    2.5470   -2.0780 C   0  0  0  0  0  0  0  0  0  0  0  0
   -4.4610    1.9950   -2.9750 C   0  0  0  0  0  0  0  0  0  0  0  0
   -4.3060    2.2070   -4.3320 C   0  0  0  0  0  3  0  0  0  0  0  0
   -2.8060    2.0480   -6.9860 C   0  0  0  0  0  1  0  0  0  0  0  0
   -3.1560    3.1450   -6.1370 O   0  0  0  0  0  0  0  0  0  0  0  0
   -3.7520    2.2650   -0.6310 C   0  0  0  0  0  0  0  0  0  0  0  0
   -4.5850    2.9150   -0.0530 O   0  0  0  0  0  0  0  0  0  0  0  0
   -3.0550    1.2120    0.1340 C   0  0  0  0  0  0  0  0  0  0  0  0
   -3.6490    0.7200    1.2960 C   0  0  0  0  0  3  0  0  0  0  0  0
   -3.0450   -0.2770    2.0270 C   0  0  0  0  0  3  0  0  0  0  0  0
   -1.8350   -0.8060    1.6230 C   0  0  0  0  0  3  0  0  0  0  0  0
   -1.2450   -0.3330    0.4680 C   0  0  0  0  0  3  0  0  0  0  0  0
   -1.8620    0.6620   -0.2690 C   0  0  0  0  0  3  0  0  0  0  0  0
   -5.4880    1.2440   -2.4910 O   0  0  0  0  0  0  0  0  0  0  0  0
   -5.4330    0.2570   -2.5170 H   0  0  0  0  0  0  0  0  0  0  0  0
  1  6  2  0  0  0  0
  1  2  1  0  0  0  0
  2  3  2  0  0  0  0
  3  4  1  0  0  0  0
  4  9  1  0  0  0  0
  5 17  1  0  0  0  0
  5  4  2  0  0  0  0
  6  5  1  0  0  0  0
  7  8  1  0  0  0  0
  8  1  1  0  0  0  0
  9 10  2  0  0  0  0
  9 11  1  0  0  0  0
 11 12  1  0  0  0  0
 12 13  2  0  0  0  0
 14 13  1  0  0  0  0
 15 14  2  0  0  0  0
 16 11  2  0  0  0  0
 16 15  1  0  0  0  0
 18 17  1  0  0  0  0
M  END
>  <MODEL>
1

>  <REMARK>
 VINA RESULT:      -5.3      0.000      0.000
  Name = ox2_shuffle_esm0_ligand
  5 active torsions:
  status: ('A' for Active; 'I' for Inactive)
    1  A    between atoms: C_1  and  O_2
    2  A    between atoms: O_2  and  C_3
    3  A    between atoms: C_6  and  C_7
    4  A    between atoms: C_7  and  C_9
    5  A    between atoms: C_15  and  O_16
                            x       y       z     vdW  Elec       q    Type
                         _______ _______ _______ _____ _____    ______ ____

>  <TORSDO>
F 4

$$$$
ox2_shuffle_esm0_ligand
 OpenBabel10092621223D

 18 19  0  0  0  0  0  0  0  0999 V2000
    1.9090    0.7820   -3.8520 C   0  0  0  0  0  0  0  0  0  0  0  0
    1.4940    1.2000   -2.5940 C   0  0  0  0  0  3  0  0  0  0  0  0
    0.4640    2.1000   -2.4810 C   0  0  0  0  0  3  0  0  0  0  0  0
   -0.1700    2.5940   -3.5980 C   0  0  0  0  0  0  0  0  0  0  0  0
    0.2600    2.1910   -4.8550 C   0  0  0  0  0  0  0  0  0  0  0  0
    1.2920    1.2790   -4.9730 C   0  0  0  0  0  3  0  0  0  0  0  0
    3.9040   -0.3110   -3.0180 C   0  0  0  0  0  1  0  0  0  0  0  0
    2.9040   -0.1190   -4.0220 O   0  0  0  0  0  0  0  0  0  0  0  0
   -1.3020    3.5560   -3.5250 C   0  0  0  0  0  0  0  0  0  0  0  0
   -1.0570    4.7110   -3.7660 O   0  0  0  0  0  0  0  0  0  0  0  0
   -2.7070    3.1990   -3.2460 C   0  0  0  0  0  0  0  0  0  0  0  0
   -3.5080    2.7530   -4.2970 C   0  0  0  0  0  3  0  0  0  0  0  0
   -4.8170    2.3880   -4.0770 C   0  0  0  0  0  3  0  0  0  0  0  0
   -5.3610    2.4610   -2.8100 C   0  0  0  0  0  3  0  0  0  0  0  0
   -4.5710    2.8890   -1.7620 C   0  0  0  0  0  3  0  0  0  0  0  0
   -3.2530    3.2450   -1.9860 C   0  0  0  0  0  3  0  0  0  0  0  0
   -0.3550    2.7070   -5.9530 O   0  0  0  0  0  0  0  0  0  0  0  0
   -0.9270    2.1280   -6.5170 H   0  0  0  0  0  0  0  0  0  0  0  0
  1  2  1  0  0  0  0
  2  3  2  0  0  0  0
  4  9  1  0  0  0  0
  4  3  1  0  0  0  0
  5  4  2  0  0  0  0
  6  5  1  0  0  0  0
  6  1  2  0  0  0  0
  8  1  1  0  0  0  0
  8  7  1  0  0  0  0
  9 11  1  0  0  0  0
 10  9  2  0  0  0  0
 11 16  1  0  0  0  0
 12 13  1  0  0  0  0
 12 11  2  0  0  0  0
 13 14  2  0  0  0  0
 14 15  1  0  0  0  0
 16 15  2  0  0  0  0
 17  5  1  0  0  0  0
 18 17  1  0  0  0  0
M  END
>  <MODEL>
2

>  <REMARK>
 VINA RESULT:      -5.3      3.476      5.535
  Name = ox2_shuffle_esm0_ligand
  5 active torsions:
  status: ('A' for Active; 'I' for Inactive)
    1  A    between atoms: C_1  and  O_2
    2  A    between atoms: O_2  and  C_3
    3  A    between atoms: C_6  and  C_7
    4  A    between atoms: C_7  and  C_9
    5  A    between atoms: C_15  and  O_16
                            x       y       z     vdW  Elec       q    Type
                         _______ _______ _______ _____ _____    ______ ____

>  <TORSDO>
F 4

$$$$
ox2_shuffle_esm0_ligand
 OpenBabel10092621223D

 18 19  0  0  0  0  0  0  0  0999 V2000
   -2.3440    1.9520   -6.2130 C   0  0  0  0  0  0  0  0  0  0  0  0
   -3.3030    1.2120   -5.5340 C   0  0  0  0  0  3  0  0  0  0  0  0
   -3.4650    1.3850   -4.1820 C   0  0  0  0  0  3  0  0  0  0  0  0
   -2.6950    2.2890   -3.4870 C   0  0  0  0  0  0  0  0  0  0  0  0
   -1.7230    3.0130   -4.1640 C   0  0  0  0  0  0  0  0  0  0  0  0
   -1.5620    2.8470   -5.5260 C   0  0  0  0  0  3  0  0  0  0  0  0
   -1.7630    0.5930   -8.1330 C   0  0  0  0  0  1  0  0  0  0  0  0
   -2.1560    1.8380   -7.5480 O   0  0  0  0  0  0  0  0  0  0  0  0
   -2.8470    2.5250   -2.0260 C   0  0  0  0  0  0  0  0  0  0  0  0
   -3.3100    3.5840   -1.6870 O   0  0  0  0  0  0  0  0  0  0  0  0
   -2.5370    1.5450   -0.9670 C   0  0  0  0  0  0  0  0  0  0  0  0
   -1.3630    0.7980   -1.0650 C   0  0  0  0  0  3  0  0  0  0  0  0
   -1.0240   -0.1100   -0.0890 C   0  0  0  0  0  3  0  0  0  0  0  0
   -1.8440   -0.3020    1.0050 C   0  0  0  0  0  3  0  0  0  0  0  0
   -3.0020    0.4420    1.1170 C   0  0  0  0  0  3  0  0  0  0  0  0
   -3.3330    1.3620    0.1380 C   0  0  0  0  0  3  0  0  0  0  0  0
   -0.9480    3.8840   -3.4630 O   0  0  0  0  0  0  0  0  0  0  0  0
   -0.9530    4.8460   -3.6920 H   0  0  0  0  0  0  0  0  0  0  0  0
  1  2  2  0  0  0  0
  1  6  1  0  0  0  0
  2  3  1  0  0  0  0
  3  4  2  0  0  0  0
  4  9  1  0  0  0  0
  5  4  1  0  0  0  0
  5 17  1  0  0  0  0
  6  5  2  0  0  0  0
  7  8  1  0  0  0  0
  8  1  1  0  0  0  0
  9 10  2  0  0  0  0
  9 11  1  0  0  0  0
 11 16  1  0  0  0  0
 12 11  2  0  0  0  0
 12 13  1  0  0  0  0
 13 14  2  0  0  0  0
 14 15  1  0  0  0  0
 16 15  2  0  0  0  0
 18 17  1  0  0  0  0
M  END
>  <MODEL>
3

>  <REMARK>
 VINA RESULT:      -5.3      1.583      2.614
  Name = ox2_shuffle_esm0_ligand
  5 active torsions:
  status: ('A' for Active; 'I' for Inactive)
    1  A    between atoms: C_1  and  O_2
    2  A    between atoms: O_2  and  C_3
    3  A    between atoms: C_6  and  C_7
    4  A    between atoms: C_7  and  C_9
    5  A    between atoms: C_15  and  O_16
                            x       y       z     vdW  Elec       q    Type
                         _______ _______ _______ _____ _____    ______ ____

>  <TORSDO>
F 4

$$$$
ox2_shuffle_esm0_ligand
 OpenBabel10092621223D

 18 19  0  0  0  0  0  0  0  0999 V2000
   -4.0400    2.1480   -4.8560 C   0  0  0  0  0  0  0  0  0  0  0  0
   -3.4420    1.0510   -5.4630 C   0  0  0  0  0  3  0  0  0  0  0  0
   -2.0770    1.0110   -5.6030 C   0  0  0  0  0  3  0  0  0  0  0  0
   -1.2880    2.0400   -5.1440 C   0  0  0  0  0  0  0  0  0  0  0  0
   -1.8900    3.1450   -4.5560 C   0  0  0  0  0  0  0  0  0  0  0  0
   -3.2630    3.1860   -4.4070 C   0  0  0  0  0  3  0  0  0  0  0  0
   -5.9330    2.4150   -3.3670 C   0  0  0  0  0  1  0  0  0  0  0  0
   -5.3780    2.2300   -4.6720 O   0  0  0  0  0  0  0  0  0  0  0  0
    0.1950    2.0330   -5.2560 C   0  0  0  0  0  0  0  0  0  0  0  0
    0.6760    2.5720   -6.2200 O   0  0  0  0  0  0  0  0  0  0  0  0
    1.1230    1.4770   -4.2500 C   0  0  0  0  0  0  0  0  0  0  0  0
    2.4950    1.5650   -4.4810 C   0  0  0  0  0  3  0  0  0  0  0  0
    3.3950    1.0800   -3.5600 C   0  0  0  0  0  3  0  0  0  0  0  0
    2.9540    0.4940   -2.3900 C   0  0  0  0  0  3  0  0  0  0  0  0
    1.5970    0.4140   -2.1480 C   0  0  0  0  0  3  0  0  0  0  0  0
    0.6960    0.9120   -3.0730 C   0  0  0  0  0  3  0  0  0  0  0  0
   -1.1020    4.1700   -4.1320 O   0  0  0  0  0  0  0  0  0  0  0  0
   -0.7920    4.1990   -3.1920 H   0  0  0  0  0  0  0  0  0  0  0  0
  1  8  1  0  0  0  0
  1  6  1  0  0  0  0
  2  1  2  0  0  0  0
  3  2  1  0  0  0  0
  3  4  2  0  0  0  0
  4  5  1  0  0  0  0
  5  6  2  0  0  0  0
  5 17  1  0  0  0  0
  8  7  1  0  0  0  0
  9  4  1  0  0  0  0
  9 11  1  0  0  0  0
 10  9  2  0  0  0  0
 11 16  1  0  0  0  0
 12 11  2  0  0  0  0
 12 13  1  0  0  0  0
 13 14  2  0  0  0  0
 14 15  1  0  0  0  0
 16 15  2  0  0  0  0
 17 18  1  0  0  0  0
M  END
>  <MODEL>
4

>  <REMARK>
 VINA RESULT:      -5.1      3.551      5.266
  Name = ox2_shuffle_esm0_ligand
  5 active torsions:
  status: ('A' for Active; 'I' for Inactive)
    1  A    between atoms: C_1  and  O_2
    2  A    between atoms: O_2  and  C_3
    3  A    between atoms: C_6  and  C_7
    4  A    between atoms: C_7  and  C_9
    5  A    between atoms: C_15  and  O_16
                            x       y       z     vdW  Elec       q    Type
                         _______ _______ _______ _____ _____    ______ ____

>  <TORSDO>
F 4

$$$$
ox2_shuffle_esm0_ligand
 OpenBabel10092621223D

 18 19  0  0  0  0  0  0  0  0999 V2000
   -1.4860    0.9590   -7.4940 C   0  0  0  0  0  0  0  0  0  0  0  0
   -0.3800    0.8200   -6.6660 C   0  0  0  0  0  3  0  0  0  0  0  0
   -0.3480    1.4720   -5.4580 C   0  0  0  0  0  3  0  0  0  0  0  0
   -1.3990    2.2590   -5.0510 C   0  0  0  0  0  0  0  0  0  0  0  0
   -2.4950    2.4130   -5.8890 C   0  0  0  0  0  0  0  0  0  0  0  0
   -2.5350    1.7530   -7.1030 C   0  0  0  0  0  3  0  0  0  0  0  0
   -1.0170   -0.9790   -8.8720 C   0  0  0  0  0  1  0  0  0  0  0  0
   -1.5810    0.3220   -8.6840 O   0  0  0  0  0  0  0  0  0  0  0  0
   -1.4180    2.9700   -3.7440 C   0  0  0  0  0  0  0  0  0  0  0  0
   -1.0410    4.1130   -3.7350 O   0  0  0  0  0  0  0  0  0  0  0  0
   -1.9220    2.4070   -2.4750 C   0  0  0  0  0  0  0  0  0  0  0  0
   -3.1050    2.9140   -1.9380 C   0  0  0  0  0  3  0  0  0  0  0  0
   -3.6220    2.4020   -0.7700 C   0  0  0  0  0  3  0  0  0  0  0  0
   -2.9750    1.3790   -0.1060 C   0  0  0  0  0  3  0  0  0  0  0  0
   -1.8100    0.8630   -0.6380 C   0  0  0  0  0  3  0  0  0  0  0  0
   -1.3000    1.3730   -1.8180 C   0  0  0  0  0  3  0  0  0  0  0  0
   -3.5180    3.2170   -5.4890 O   0  0  0  0  0  0  0  0  0  0  0  0
   -3.3480    4.1710   -5.2900 H   0  0  0  0  0  0  0  0  0  0  0  0
  1  6  2  0  0  0  0
  1  2  1  0  0  0  0
  2  3  2  0  0  0  0
  3  4  1  0  0  0  0
  4  9  1  0  0  0  0
  5 17  1  0  0  0  0
  5  4  2  0  0  0  0
  6  5  1  0  0  0  0
  7  8  1  0  0  0  0
  8  1  1  0  0  0  0
  9 10  2  0  0  0  0
  9 11  1  0  0  0  0
 11 12  2  0  0  0  0
 11 16  1  0  0  0  0
 12 13  1  0  0  0  0
 13 14  2  0  0  0  0
 15 14  1  0  0  0  0
 16 15  2  0  0  0  0
 17 18  1  0  0  0  0
M  END
>  <MODEL>
5

>  <REMARK>
 VINA RESULT:      -5.0      2.177      3.725
  Name = ox2_shuffle_esm0_ligand
  5 active torsions:
  status: ('A' for Active; 'I' for Inactive)
    1  A    between atoms: C_1  and  O_2
    2  A    between atoms: O_2  and  C_3
    3  A    between atoms: C_6  and  C_7
    4  A    between atoms: C_7  and  C_9
    5  A    between atoms: C_15  and  O_16
                            x       y       z     vdW  Elec       q    Type
                         _______ _______ _______ _____ _____    ______ ____

>  <TORSDO>
F 4

$$$$
ox2_shuffle_esm0_ligand
 OpenBabel10092621223D

 18 19  0  0  0  0  0  0  0  0999 V2000
    6.6320   10.0700    3.5620 C   0  0  0  0  0  0  0  0  0  0  0  0
    5.8570   10.4600    4.6470 C   0  0  0  0  0  3  0  0  0  0  0  0
    4.5940   10.9550    4.4380 C   0  0  0  0  0  3  0  0  0  0  0  0
    4.0790   11.0670    3.1680 C   0  0  0  0  0  0  0  0  0  0  0  0
    4.8630   10.6960    2.0830 C   0  0  0  0  0  0  0  0  0  0  0  0
    6.1320   10.1900    2.2900 C   0  0  0  0  0  3  0  0  0  0  0  0
    8.5190    9.5410    4.9880 C   0  0  0  0  0  1  0  0  0  0  0  0
    7.8750    9.5550    3.7110 O   0  0  0  0  0  0  0  0  0  0  0  0
    2.7090   11.5790    2.8930 C   0  0  0  0  0  0  0  0  0  0  0  0
    2.6150   12.7210    2.5210 O   0  0  0  0  0  0  0  0  0  0  0  0
    1.4690   10.7830    2.9770 C   0  0  0  0  0  0  0  0  0  0  0  0
    0.8910   10.5710    4.2290 C   0  0  0  0  0  3  0  0  0  0  0  0
   -0.2780    9.8540    4.3510 C   0  0  0  0  0  3  0  0  0  0  0  0
   -0.8970    9.3280    3.2340 C   0  0  0  0  0  3  0  0  0  0  0  0
   -0.3380    9.5440    1.9900 C   0  0  0  0  0  3  0  0  0  0  0  0
    0.8310   10.2740    1.8720 C   0  0  0  0  0  3  0  0  0  0  0  0
    4.3540   10.8360    0.8290 O   0  0  0  0  0  0  0  0  0  0  0  0
    4.2220   11.7400    0.4470 H   0  0  0  0  0  0  0  0  0  0  0  0
  1  8  1  0  0  0  0
  1  2  1  0  0  0  0
  3  2  2  0  0  0  0
  4  3  1  0  0  0  0
  5  6  1  0  0  0  0
  5  4  2  0  0  0  0
  6  1  2  0  0  0  0
  8  7  1  0  0  0  0
  9 11  1  0  0  0  0
  9  4  1  0  0  0  0
 10  9  2  0  0  0  0
 11 12  1  0  0  0  0
 12 13  2  0  0  0  0
 14 13  1  0  0  0  0
 15 14  2  0  0  0  0
 16 15  1  0  0  0  0
 16 11  2  0  0  0  0
 17  5  1  0  0  0  0
 18 17  1  0  0  0  0
M  END
>  <MODEL>
6

>  <REMARK>
 VINA RESULT:      -5.0     11.586     13.025
  Name = ox2_shuffle_esm0_ligand
  5 active torsions:
  status: ('A' for Active; 'I' for Inactive)
    1  A    between atoms: C_1  and  O_2
    2  A    between atoms: O_2  and  C_3
    3  A    between atoms: C_6  and  C_7
    4  A    between atoms: C_7  and  C_9
    5  A    between atoms: C_15  and  O_16
                            x       y       z     vdW  Elec       q    Type
                         _______ _______ _______ _____ _____    ______ ____

>  <TORSDO>
F 4

$$$$
ox2_shuffle_esm0_ligand
 OpenBabel10092621223D

 18 19  0  0  0  0  0  0  0  0999 V2000
   -1.7760    1.4680   -7.2620 C   0  0  0  0  0  0  0  0  0  0  0  0
   -2.8870    2.1700   -6.8130 C   0  0  0  0  0  3  0  0  0  0  0  0
   -2.8770    2.7310   -5.5600 C   0  0  0  0  0  3  0  0  0  0  0  0
   -1.7780    2.6140   -4.7410 C   0  0  0  0  0  0  0  0  0  0  0  0
   -0.6760    1.8950   -5.1850 C   0  0  0  0  0  0  0  0  0  0  0  0
   -0.6790    1.3340   -6.4480 C   0  0  0  0  0  3  0  0  0  0  0  0
   -0.6630    0.0240   -8.8580 C   0  0  0  0  0  1  0  0  0  0  0  0
   -1.7230    0.9130   -8.4950 O   0  0  0  0  0  0  0  0  0  0  0  0
   -1.7130    3.2210   -3.3850 C   0  0  0  0  0  0  0  0  0  0  0  0
   -1.0760    4.2370   -3.2680 O   0  0  0  0  0  0  0  0  0  0  0  0
   -2.4170    2.7150   -2.1900 C   0  0  0  0  0  0  0  0  0  0  0  0
   -1.8920    1.6110   -1.5190 C   0  0  0  0  0  3  0  0  0  0  0  0
   -2.5030    1.1200   -0.3880 C   0  0  0  0  0  3  0  0  0  0  0  0
   -3.6520    1.7120    0.1010 C   0  0  0  0  0  3  0  0  0  0  0  0
   -4.1710    2.8130   -0.5500 C   0  0  0  0  0  3  0  0  0  0  0  0
   -3.5460    3.3090   -1.6810 C   0  0  0  0  0  3  0  0  0  0  0  0
    0.3950    1.7620   -4.3560 O   0  0  0  0  0  0  0  0  0  0  0  0
    1.2020    2.3180   -4.4980 H   0  0  0  0  0  0  0  0  0  0  0  0
  1  2  2  0  0  0  0
  1  6  1  0  0  0  0
  2  3  1  0  0  0  0
  3  4  2  0  0  0  0
  4  9  1  0  0  0  0
  5  4  1  0  0  0  0
  5 17  1  0  0  0  0
  6  5  2  0  0  0  0
  7  8  1  0  0  0  0
  8  1  1  0  0  0  0
  9 10  2  0  0  0  0
  9 11  1  0  0  0  0
 11 16  2  0  0  0  0
 11 12  1  0  0  0  0
 12 13  2  0  0  0  0
 13 14  1  0  0  0  0
 15 14  2  0  0  0  0
 16 15  1  0  0  0  0
 18 17  1  0  0  0  0
M  END
>  <MODEL>
7

>  <REMARK>
 VINA RESULT:      -5.0      2.447      3.835
  Name = ox2_shuffle_esm0_ligand
  5 active torsions:
  status: ('A' for Active; 'I' for Inactive)
    1  A    between atoms: C_1  and  O_2
    2  A    between atoms: O_2  and  C_3
    3  A    between atoms: C_6  and  C_7
    4  A    between atoms: C_7  and  C_9
    5  A    between atoms: C_15  and  O_16
                            x       y       z     vdW  Elec       q    Type
                         _______ _______ _______ _____ _____    ______ ____

>  <TORSDO>
F 4

$$$$
ox2_shuffle_esm0_ligand
 OpenBabel10092621223D

 18 19  0  0  0  0  0  0  0  0999 V2000
    4.3520   11.1560    3.0930 C   0  0  0  0  0  0  0  0  0  0  0  0
    3.6770   11.2650    4.3020 C   0  0  0  0  0  3  0  0  0  0  0  0
    2.3050   11.2590    4.3180 C   0  0  0  0  0  3  0  0  0  0  0  0
    1.5840   11.1400    3.1530 C   0  0  0  0  0  0  0  0  0  0  0  0
    2.2600   11.0520    1.9440 C   0  0  0  0  0  0  0  0  0  0  0  0
    3.6420   11.0500    1.9230 C   0  0  0  0  0  3  0  0  0  0  0  0
    6.3970    9.9840    2.5290 C   0  0  0  0  0  1  0  0  0  0  0  0
    5.7030   11.1350    3.0200 O   0  0  0  0  0  0  0  0  0  0  0  0
    0.0970   11.1090    3.1220 C   0  0  0  0  0  0  0  0  0  0  0  0
   -0.4680   12.1360    2.8470 O   0  0  0  0  0  0  0  0  0  0  0  0
   -0.7350    9.9090    3.3390 C   0  0  0  0  0  0  0  0  0  0  0  0
   -1.0240    9.0860    2.2490 C   0  0  0  0  0  3  0  0  0  0  0  0
   -1.7760    7.9450    2.4110 C   0  0  0  0  0  3  0  0  0  0  0  0
   -2.2630    7.5970    3.6550 C   0  0  0  0  0  3  0  0  0  0  0  0
   -1.9710    8.3980    4.7400 C   0  0  0  0  0  3  0  0  0  0  0  0
   -1.2060    9.5390    4.5750 C   0  0  0  0  0  3  0  0  0  0  0  0
    1.5370   10.9620    0.7940 O   0  0  0  0  0  0  0  0  0  0  0  0
    1.3870   11.7690    0.2400 H   0  0  0  0  0  0  0  0  0  0  0  0
  1  2  1  0  0  0  0
  2  3  2  0  0  0  0
  4  3  1  0  0  0  0
  5  4  2  0  0  0  0
  6  5  1  0  0  0  0
  6  1  2  0  0  0  0
  7  8  1  0  0  0  0
  8  1  1  0  0  0  0
  9  4  1  0  0  0  0
  9 11  1  0  0  0  0
 10  9  2  0  0  0  0
 11 16  1  0  0  0  0
 12 13  1  0  0  0  0
 12 11  2  0  0  0  0
 13 14  2  0  0  0  0
 14 15  1  0  0  0  0
 16 15  2  0  0  0  0
 17  5  1  0  0  0  0
 18 17  1  0  0  0  0
M  END
>  <MODEL>
8

>  <REMARK>
 VINA RESULT:      -4.8     10.260     11.609
  Name = ox2_shuffle_esm0_ligand
  5 active torsions:
  status: ('A' for Active; 'I' for Inactive)
    1  A    between atoms: C_1  and  O_2
    2  A    between atoms: O_2  and  C_3
    3  A    between atoms: C_6  and  C_7
    4  A    between atoms: C_7  and  C_9
    5  A    between atoms: C_15  and  O_16
                            x       y       z     vdW  Elec       q    Type
                         _______ _______ _______ _____ _____    ______ ____

>  <TORSDO>
F 4

$$$$
ox2_shuffle_esm0_ligand
 OpenBabel10092621223D

 18 19  0  0  0  0  0  0  0  0999 V2000
    3.2920   -1.9150   -2.5990 C   0  0  0  0  0  0  0  0  0  0  0  0
    2.0200   -2.4720   -2.6440 C   0  0  0  0  0  3  0  0  0  0  0  0
    0.9180   -1.6680   -2.4860 C   0  0  0  0  0  3  0  0  0  0  0  0
    1.0540   -0.3130   -2.2890 C   0  0  0  0  0  0  0  0  0  0  0  0
    2.3270    0.2390   -2.2240 C   0  0  0  0  0  0  0  0  0  0  0  0
    3.4380   -0.5660   -2.3900 C   0  0  0  0  0  3  0  0  0  0  0  0
    5.6130   -2.3510   -2.0580 C   0  0  0  0  0  1  0  0  0  0  0  0
    4.4100   -2.6560   -2.7700 O   0  0  0  0  0  0  0  0  0  0  0  0
   -0.1090    0.6010   -2.1320 C   0  0  0  0  0  0  0  0  0  0  0  0
   -0.3000    1.4020   -3.0110 O   0  0  0  0  0  0  0  0  0  0  0  0
   -1.0800    0.5610   -1.0200 C   0  0  0  0  0  0  0  0  0  0  0  0
   -2.2020    1.3880   -1.0790 C   0  0  0  0  0  3  0  0  0  0  0  0
   -3.1440    1.3660   -0.0760 C   0  0  0  0  0  3  0  0  0  0  0  0
   -2.9930    0.5260    1.0090 C   0  0  0  0  0  3  0  0  0  0  0  0
   -1.8910   -0.3040    1.0690 C   0  0  0  0  0  3  0  0  0  0  0  0
   -0.9520   -0.2860    0.0530 C   0  0  0  0  0  3  0  0  0  0  0  0
    2.4500    1.5750   -2.0010 O   0  0  0  0  0  0  0  0  0  0  0  0
    2.1220    1.9680   -1.1540 H   0  0  0  0  0  0  0  0  0  0  0  0
  1  6  1  0  0  0  0
  2  1  2  0  0  0  0
  2  3  1  0  0  0  0
  3  4  2  0  0  0  0
  4  5  1  0  0  0  0
  4  9  1  0  0  0  0
  5 17  1  0  0  0  0
  6  5  2  0  0  0  0
  8  1  1  0  0  0  0
  8  7  1  0  0  0  0
  9 11  1  0  0  0  0
 10  9  2  0  0  0  0
 11 16  1  0  0  0  0
 12 11  2  0  0  0  0
 12 13  1  0  0  0  0
 13 14  2  0  0  0  0
 14 15  1  0  0  0  0
 16 15  2  0  0  0  0
 17 18  1  0  0  0  0
M  END
>  <MODEL>
9

>  <REMARK>
 VINA RESULT:      -4.8      4.716      6.285
  Name = ox2_shuffle_esm0_ligand
  5 active torsions:
  status: ('A' for Active; 'I' for Inactive)
    1  A    between atoms: C_1  and  O_2
    2  A    between atoms: O_2  and  C_3
    3  A    between atoms: C_6  and  C_7
    4  A    between atoms: C_7  and  C_9
    5  A    between atoms: C_15  and  O_16
                            x       y       z     vdW  Elec       q    Type
                         _______ _______ _______ _____ _____    ______ ____

>  <TORSDO>
F 4

$$$$
