s3_esm2_f4_dockpose1
     RDKit          3D

 20 20  0  0  0  0  0  0  0  0999 V2000
   -3.1760   -2.5570   10.6690 C   0  0  0  0  0  0  0  0  0  0  0  0
   -2.4260   -3.7820   10.1360 C   0  0  0  0  0  0  0  0  0  0  0  0
   -2.7520   -5.0020   10.9600 C   0  0  0  0  0  0  0  0  0  0  0  0
   -1.7460   -6.0950   10.7270 C   0  0  0  0  0  0  0  0  0  0  0  0
   -1.7960   -6.6030    9.2930 C   0  0  2  0  0  0  0  0  0  0  0  0
   -2.6690   -7.8340    9.2250 C   0  0  0  0  0  0  0  0  0  0  0  0
   -1.9460   -9.1240    9.4780 C   0  0  0  0  0  0  0  0  0  0  0  0
   -0.4830   -6.9120    8.8620 O   0  0  0  0  0  0  0  0  0  0  0  0
   -0.0090   -6.3430    7.7240 C   0  0  0  0  0  0  0  0  0  0  0  0
    0.5670   -6.9830    6.8870 O   0  0  0  0  0  0  0  0  0  0  0  0
   -0.2290   -4.9040    7.6160 C   0  0  0  0  0  0  0  0  0  0  0  0
   -0.8410   -4.3840    6.5580 C   0  0  0  0  0  0  0  0  0  0  0  0
   -1.2770   -2.9730    6.4820 C   0  0  0  0  0  0  0  0  0  0  0  0
   -2.6150   -2.6380    6.4450 C   0  0  0  0  0  0  0  0  0  0  0  0
   -2.9930   -1.3120    6.3390 C   0  0  0  0  0  0  0  0  0  0  0  0
   -2.0590   -0.3230    6.2680 C   0  0  0  0  0  0  0  0  0  0  0  0
   -2.4660    0.9600    6.1550 O   0  0  0  0  0  0  0  0  0  0  0  0
   -3.0900    1.6030    7.2550 C   0  0  0  0  0  0  0  0  0  0  0  0
   -0.7200   -0.6550    6.3120 C   0  0  0  0  0  0  0  0  0  0  0  0
   -0.3400   -1.9770    6.4200 C   0  0  0  0  0  0  0  0  0  0  0  0
  2  1  1  0
  3  2  1  0
  4  3  1  0
  5  4  1  1
  6  5  1  0
  7  6  1  0
  8  5  1  0
  9  8  1  0
 10  9  2  0
 11  9  1  0
 12 11  2  3
 13 12  1  0
 14 13  1  0
 15 14  2  0
 16 15  1  0
 17 16  1  0
 18 17  1  0
 19 16  2  0
 20 19  1  0
 20 13  2  0
M  END
$$$$
