s3_orig_f12_pose0_reference
     RDKit          3D

 20 20  0  0  0  0  0  0  0  0999 V2000
   -7.5240   -4.4420    4.2970 C   0  0  0  0  0  0  0  0  0  0  0  0
   -7.8180   -3.5170    3.1360 C   0  0  0  0  0  0  0  0  0  0  0  0
   -6.5720   -3.1960    2.3510 C   0  0  0  0  0  0  0  0  0  0  0  0
   -6.8400   -2.3090    1.1800 C   0  0  0  0  0  0  0  0  0  0  0  0
   -5.6820   -1.4080    0.7810 C   0  0  2  0  0  0  0  0  0  0  0  0
   -5.9070   -0.8600   -0.6160 C   0  0  0  0  0  0  0  0  0  0  0  0
   -7.2600   -0.1840   -0.8080 C   0  0  0  0  0  0  0  0  0  0  0  0
   -4.5270   -2.0420    0.8410 O   0  0  0  0  0  0  0  0  0  0  0  0
   -3.5670   -2.7930    0.6200 C   0  0  0  0  0  0  0  0  0  0  0  0
   -3.6080   -3.5010   -0.3530 O   0  0  0  0  0  0  0  0  0  0  0  0
   -2.4560   -2.7870    1.6000 C   0  0  0  0  0  0  0  0  0  0  0  0
   -1.3970   -3.5820    1.4700 C   0  0  0  0  0  0  0  0  0  0  0  0
   -0.3030   -3.6910    2.4680 C   0  0  0  0  0  0  0  0  0  0  0  0
    0.5770   -4.7580    2.3950 C   0  0  0  0  0  0  0  0  0  0  0  0
    1.5600   -4.9300    3.3630 C   0  0  0  0  0  0  0  0  0  0  0  0
    1.7180   -4.0100    4.3790 C   0  0  0  0  0  0  0  0  0  0  0  0
    2.6900   -4.1310    5.3510 O   0  0  0  0  0  0  0  0  0  0  0  0
    3.0940   -5.4370    5.7180 C   0  0  0  0  0  0  0  0  0  0  0  0
    0.8790   -2.9280    4.4170 C   0  0  0  0  0  0  0  0  0  0  0  0
   -0.1290   -2.7680    3.4670 C   0  0  0  0  0  0  0  0  0  0  0  0
  2  1  1  0
  3  2  1  0
  4  3  1  0
  5  4  1  6
  6  5  1  0
  7  6  1  0
  8  5  1  0
  9  8  1  0
 10  9  2  0
 11  9  1  0
 12 11  2  3
 13 12  1  0
 14 13  1  0
 15 14  2  0
 16 15  1  0
 17 16  1  0
 18 17  1  0
 19 16  2  0
 20 19  1  0
 20 13  2  0
M  END
>  <structure>  (1) 
s3_orig_f12

>  <pose>  (1) 
0

>  <is_reference>  (1) 
1

>  <rmsd_to_reference_A>  (1) 
0.000

>  <vina_score>  (1) 


$$$$
