shuffle_control_esm0_ligand
     RDKit          3D

 44 44  0  0  0  0  0  0  0  0999 V2000
   -0.3850   11.1240    0.0630 C   0  0  0  0  0  0  0  0  0  0  0  0
    0.8670   10.4990    0.5710 C   0  0  0  0  0  0  0  0  0  0  0  0
    1.3140   10.8790    1.9500 C   0  0  0  0  0  0  0  0  0  0  0  0
    0.2780   11.4060    2.8820 C   0  0  0  0  0  0  0  0  0  0  0  0
    0.7340   11.5700    4.2950 C   0  0  1  0  0  0  0  0  0  0  0  0
   -0.4970   11.7620    5.1620 C   0  0  0  0  0  0  0  0  0  0  0  0
   -0.2510   12.1130    6.6010 C   0  0  0  0  0  0  0  0  0  0  0  0
    1.4790   10.4100    4.6520 O   0  0  0  0  0  0  0  0  0  0  0  0
    2.6810   10.4780    5.2760 C   0  0  0  0  0  0  0  0  0  0  0  0
    3.1300   11.5110    5.6600 O   0  0  0  0  0  0  0  0  0  0  0  0
    3.3750    9.1620    5.4220 C   0  0  0  0  0  0  0  0  0  0  0  0
    4.0890    8.6580    4.4310 C   0  0  0  0  0  0  0  0  0  0  0  0
    4.6990    7.2950    4.4660 C   0  0  0  0  0  0  0  0  0  0  0  0
    4.4910    6.4590    3.3990 C   0  0  0  0  0  0  0  0  0  0  0  0
    5.0100    5.1720    3.3910 C   0  0  0  0  0  0  0  0  0  0  0  0
    5.7580    4.7130    4.4590 C   0  0  0  0  0  0  0  0  0  0  0  0
    6.2700    3.4650    4.4960 O   0  0  0  0  0  0  0  0  0  0  0  0
    5.9660    2.5500    3.4450 C   0  0  0  0  0  0  0  0  0  0  0  0
    5.9770    5.5660    5.5410 C   0  0  0  0  0  0  0  0  0  0  0  0
    5.4540    6.8630    5.5400 C   0  0  0  0  0  0  0  0  0  0  0  0
   -1.0100   11.4360    0.9127 H   0  0  0  0  0  0  0  0  0  0  0  0
   -0.1339   12.0025   -0.5495 H   0  0  0  0  0  0  0  0  0  0  0  0
   -0.9362   10.3953   -0.5495 H   0  0  0  0  0  0  0  0  0  0  0  0
    0.7203    9.4089    0.5598 H   0  0  0  0  0  0  0  0  0  0  0  0
    1.6591   10.8711   -0.0954 H   0  0  0  0  0  0  0  0  0  0  0  0
    1.7515    9.9829    2.4144 H   0  0  0  0  0  0  0  0  0  0  0  0
    2.0121   11.7159    1.8005 H   0  0  0  0  0  0  0  0  0  0  0  0
   -0.0482   12.3889    2.5111 H   0  0  0  0  0  0  0  0  0  0  0  0
   -0.5303   10.6602    2.9013 H   0  0  0  0  0  0  0  0  0  0  0  0
    1.3852   12.4460    4.4312 H   0  0  0  0  0  0  0  0  0  0  0  0
   -1.0965   12.5703    4.7180 H   0  0  0  0  0  0  0  0  0  0  0  0
   -0.9970   10.7824    5.1812 H   0  0  0  0  0  0  0  0  0  0  0  0
   -0.7614   11.3848    7.2485 H   0  0  0  0  0  0  0  0  0  0  0  0
    0.8298   12.0902    6.8044 H   0  0  0  0  0  0  0  0  0  0  0  0
   -0.6412   13.1212    6.8044 H   0  0  0  0  0  0  0  0  0  0  0  0
    3.2901    8.6057    6.3672 H   0  0  0  0  0  0  0  0  0  0  0  0
    4.2422    9.2746    3.5330 H   0  0  0  0  0  0  0  0  0  0  0  0
    3.9050    6.8133    2.5381 H   0  0  0  0  0  0  0  0  0  0  0  0
    4.8251    4.5132    2.5297 H   0  0  0  0  0  0  0  0  0  0  0  0
    5.6469    1.5895    3.8759 H   0  0  0  0  0  0  0  0  0  0  0  0
    5.1560    2.9606    2.8243 H   0  0  0  0  0  0  0  0  0  0  0  0
    6.8607    2.3942    2.8243 H   0  0  0  0  0  0  0  0  0  0  0  0
    6.5657    5.2156    6.4017 H   0  0  0  0  0  0  0  0  0  0  0  0
    5.6425    7.5358    6.3896 H   0  0  0  0  0  0  0  0  0  0  0  0
  2  1  1  0
  3  2  1  0
  4  3  1  0
  5  4  1  0
  6  5  1  0
  7  6  1  0
  8  5  1  0
  9  8  1  0
 10  9  2  0
 11  9  1  0
 12 11  2  3
 13 12  1  0
 14 13  1  0
 15 14  2  0
 16 15  1  0
 17 16  1  0
 18 17  1  0
 19 16  2  0
 20 13  2  0
 20 19  1  0
  1 21  1  0
  1 22  1  0
  1 23  1  0
  2 24  1  0
  2 25  1  0
  3 26  1  0
  3 27  1  0
  4 28  1  0
  4 29  1  0
  5 30  1  6
  6 31  1  0
  6 32  1  0
  7 33  1  0
  7 34  1  0
  7 35  1  0
 11 36  1  0
 12 37  1  0
 14 38  1  0
 15 39  1  0
 18 40  1  0
 18 41  1  0
 18 42  1  0
 19 43  1  0
 20 44  1  0
M  END
$$$$
