orig_f12_ligand
     RDKit          3D

 44 44  0  0  0  0  0  0  0  0999 V2000
   10.6730    2.9408    6.8645 C   0  0  0  0  0  0  0  0  0  0  0  0
    9.4196    2.8764    6.0255 C   0  0  0  0  0  0  0  0  0  0  0  0
    9.2660    1.5442    5.3486 C   0  0  0  0  0  0  0  0  0  0  0  0
    8.0362    1.4888    4.5028 C   0  0  0  0  0  0  0  0  0  0  0  0
    7.8626    0.1833    3.7572 C   0  0  2  0  0  0  0  0  0  0  0  0
    6.6832    0.2558    2.7996 C   0  0  0  0  0  0  0  0  0  0  0  0
    5.4068   -0.3941    3.3009 C   0  0  0  0  0  0  0  0  0  0  0  0
    7.6475   -0.8435    4.6952 O   0  0  0  0  0  0  0  0  0  0  0  0
    8.4863   -1.8689    4.7334 C   0  0  0  0  0  0  0  0  0  0  0  0
    9.5602   -1.8625    4.1712 O   0  0  0  0  0  0  0  0  0  0  0  0
    7.9446   -3.0126    5.4787 C   0  0  0  0  0  0  0  0  0  0  0  0
    8.4343   -4.2362    5.2468 C   0  0  0  0  0  0  0  0  0  0  0  0
    7.8646   -5.4460    5.8648 C   0  0  0  0  0  0  0  0  0  0  0  0
    6.9087   -5.3823    6.8531 C   0  0  0  0  0  0  0  0  0  0  0  0
    6.3679   -6.5410    7.3860 C   0  0  0  0  0  0  0  0  0  0  0  0
    6.7913   -7.7629    6.9371 C   0  0  0  0  0  0  0  0  0  0  0  0
    6.2821   -8.9372    7.4130 O   0  0  0  0  0  0  0  0  0  0  0  0
    5.5550   -8.9486    8.6355 C   0  0  0  0  0  0  0  0  0  0  0  0
    7.7488   -7.8370    5.9430 C   0  0  0  0  0  0  0  0  0  0  0  0
    8.2942   -6.6716    5.4182 C   0  0  0  0  0  0  0  0  0  0  0  0
   11.3578    3.6916    6.4436 H   0  0  0  0  0  0  0  0  0  0  0  0
   10.4103    3.2212    7.8952 H   0  0  0  0  0  0  0  0  0  0  0  0
   11.1642    1.9566    6.8661 H   0  0  0  0  0  0  0  0  0  0  0  0
    8.5482    3.0482    6.6744 H   0  0  0  0  0  0  0  0  0  0  0  0
    9.4917    3.6486    5.2454 H   0  0  0  0  0  0  0  0  0  0  0  0
   10.1446    1.3656    4.7113 H   0  0  0  0  0  0  0  0  0  0  0  0
    9.1789    0.7733    6.1284 H   0  0  0  0  0  0  0  0  0  0  0  0
    7.1616    1.6349    5.1537 H   0  0  0  0  0  0  0  0  0  0  0  0
    8.1350    2.2790    3.7439 H   0  0  0  0  0  0  0  0  0  0  0  0
    8.7689   -0.0179    3.1673 H   0  0  0  0  0  0  0  0  0  0  0  0
    6.4703    1.3165    2.6006 H   0  0  0  0  0  0  0  0  0  0  0  0
    6.9817   -0.3065    1.9025 H   0  0  0  0  0  0  0  0  0  0  0  0
    5.2272   -0.0933    4.3436 H   0  0  0  0  0  0  0  0  0  0  0  0
    4.5611   -0.0719    2.6756 H   0  0  0  0  0  0  0  0  0  0  0  0
    5.5067   -1.4883    3.2470 H   0  0  0  0  0  0  0  0  0  0  0  0
    7.1450   -2.8649    6.2195 H   0  0  0  0  0  0  0  0  0  0  0  0
    9.2944   -4.3427    4.5693 H   0  0  0  0  0  0  0  0  0  0  0  0
    6.5712   -4.4028    7.2229 H   0  0  0  0  0  0  0  0  0  0  0  0
    5.5984   -6.4793    8.1696 H   0  0  0  0  0  0  0  0  0  0  0  0
    6.0710   -8.3185    9.3749 H   0  0  0  0  0  0  0  0  0  0  0  0
    4.5417   -8.5569    8.4632 H   0  0  0  0  0  0  0  0  0  0  0  0
    5.4901   -9.9795    9.0139 H   0  0  0  0  0  0  0  0  0  0  0  0
    8.0786   -8.8171    5.5678 H   0  0  0  0  0  0  0  0  0  0  0  0
    9.0721   -6.7310    4.6428 H   0  0  0  0  0  0  0  0  0  0  0  0
  2  1  1  0
  3  2  1  0
  4  3  1  0
  5  4  1  0
  6  5  1  0
  7  6  1  0
  8  5  1  0
  9  8  1  0
 10  9  2  0
 11  9  1  0
 12 11  2  3
 13 12  1  0
 14 13  1  0
 15 14  2  0
 16 15  1  0
 17 16  1  0
 18 17  1  0
 19 16  2  0
 20 19  1  0
 20 13  2  0
  1 21  1  0
  1 22  1  0
  1 23  1  0
  2 24  1  0
  2 25  1  0
  3 26  1  0
  3 27  1  0
  4 28  1  0
  4 29  1  0
  5 30  1  6
  6 31  1  0
  6 32  1  0
  7 33  1  0
  7 34  1  0
  7 35  1  0
 11 36  1  0
 12 37  1  0
 14 38  1  0
 15 39  1  0
 18 40  1  0
 18 41  1  0
 18 42  1  0
 19 43  1  0
 20 44  1  0
M  END
$$$$
