orig_f12_ligand
 OpenBabel10092621023D

 20 20  0  0  1  0  0  0  0  0999 V2000
    7.4160   -2.6950   -4.0080 C   0  0  0  0  0  0  0  0  0  0  0  0
    8.2980   -3.4290   -4.3990 O   0  0  0  0  0  0  0  0  0  0  0  0
    7.4130   -2.0240   -2.7020 C   0  0  0  0  0  3  0  0  0  0  0  0
    8.0890   -0.8800   -2.5520 C   0  0  0  0  0  3  0  0  0  0  0  0
    8.2330   -0.2100   -1.2480 C   0  0  0  0  0  0  0  0  0  0  0  0
    9.4100   -0.2400   -0.5360 C   0  0  0  0  0  3  0  0  0  0  0  0
    9.5210    0.4330    0.6700 C   0  0  0  0  0  3  0  0  0  0  0  0
    8.4510    1.1260    1.1680 C   0  0  0  0  0  0  0  0  0  0  0  0
    7.2650    1.1640    0.4590 C   0  0  0  0  0  3  0  0  0  0  0  0
    7.1570    0.4810   -0.7460 C   0  0  0  0  0  3  0  0  0  0  0  0
    8.5080    1.8210    2.3420 O   0  0  0  0  0  0  0  0  0  0  0  0
    9.5360    1.5360    3.2840 C   0  0  0  0  0  1  0  0  0  0  0  0
    6.3180   -2.4510   -4.7080 O   0  0  0  0  0  0  0  0  0  0  0  0
    5.1270   -2.1370   -4.0260 C   0  0  1  0  0  3  0  0  0  0  0  0
    4.4850   -0.9120   -4.6600 C   0  0  0  0  0  2  0  0  0  0  0  0
    4.6090    0.3680   -3.8550 C   0  0  0  0  0  1  0  0  0  0  0  0
    4.2000   -3.3320   -4.0980 C   0  0  0  0  0  2  0  0  0  0  0  0
    3.9810   -4.0060   -2.7830 C   0  0  0  0  0  2  0  0  0  0  0  0
    5.7050   -5.7710   -3.1570 C   0  0  0  0  0  1  0  0  0  0  0  0
    4.2550   -5.4810   -2.8590 C   0  0  0  0  0  2  0  0  0  0  0  0
  1  3  1  0  0  0  0
  2  1  2  0  0  0  0
  3  4  2  0  0  0  0
  4  5  1  0  0  0  0
  5 10  2  0  0  0  0
  5  6  1  0  0  0  0
  6  7  2  0  0  0  0
  7  8  1  0  0  0  0
  8 11  1  0  0  0  0
  9  8  2  0  0  0  0
 10  9  1  0  0  0  0
 11 12  1  0  0  0  0
 13 14  1  0  0  0  0
 13  1  1  0  0  0  0
 14 15  1  6  0  0  0
 15 16  1  0  0  0  0
 17 14  1  0  0  0  0
 17 18  1  0  0  0  0
 19 20  1  0  0  0  0
 20 18  1  0  0  0  0
M  END
>  <MODEL>
1

>  <REMARK>
 VINA RESULT:      -4.2      0.000      0.000
  Name = orig_f12_ligand
  12 active torsions:
  status: ('A' for Active; 'I' for Inactive)
    1  A    between atoms: C_1  and  C_2
    2  A    between atoms: C_2  and  C_3
    3  A    between atoms: C_3  and  C_4
    4  A    between atoms: C_4  and  C_5
    5  A    between atoms: C_5  and  C_6
    6  A    between atoms: C_5  and  O_8
    7  A    between atoms: C_6  and  C_7
    8  A    between atoms: O_8  and  C_9
    9  A    between atoms: C_9  and  C_11
   10  A    between atoms: C_12  and  C_13
   11  A    between atoms: C_16  and  O_17
   12  A    between atoms: O_17  and  C_18
                            x       y       z     vdW  Elec       q    Type
                         _______ _______ _______ _____ _____    ______ ____

>  <TORSDO>
F 9

$$$$
orig_f12_ligand
 OpenBabel10092621023D

 20 20  0  0  1  0  0  0  0  0999 V2000
    8.2130   -0.8850   -2.0960 C   0  0  0  0  0  0  0  0  0  0  0  0
    9.2850   -0.6580   -2.6160 O   0  0  0  0  0  0  0  0  0  0  0  0
    7.4950   -2.1630   -2.1960 C   0  0  0  0  0  3  0  0  0  0  0  0
    6.4790   -2.2770   -3.0580 C   0  0  0  0  0  3  0  0  0  0  0  0
    5.6360   -3.4820   -3.1320 C   0  0  0  0  0  0  0  0  0  0  0  0
    6.1710   -4.7500   -3.1370 C   0  0  0  0  0  3  0  0  0  0  0  0
    5.3460   -5.8630   -3.1700 C   0  0  0  0  0  3  0  0  0  0  0  0
    3.9870   -5.7060   -3.2070 C   0  0  0  0  0  0  0  0  0  0  0  0
    3.4400   -4.4370   -3.2000 C   0  0  0  0  0  3  0  0  0  0  0  0
    4.2720   -3.3240   -3.1750 C   0  0  0  0  0  3  0  0  0  0  0  0
    3.1260   -6.7660   -3.2240 O   0  0  0  0  0  0  0  0  0  0  0  0
    3.1000   -7.6390   -4.3460 C   0  0  0  0  0  1  0  0  0  0  0  0
    7.5380    0.0250   -1.4090 O   0  0  0  0  0  0  0  0  0  0  0  0
    8.0870    0.5260   -0.2130 C   0  0  1  0  0  3  0  0  0  0  0  0
    7.2520    1.6980    0.2800 C   0  0  0  0  0  2  0  0  0  0  0  0
    5.8780    1.3310    0.8090 C   0  0  0  0  0  1  0  0  0  0  0  0
    8.1110   -0.5890    0.8110 C   0  0  0  0  0  2  0  0  0  0  0  0
    9.0360   -0.3390    1.9570 C   0  0  0  0  0  2  0  0  0  0  0  0
    8.5440    0.9840    4.0140 C   0  0  0  0  0  1  0  0  0  0  0  0
    8.3050   -0.3050    3.2680 C   0  0  0  0  0  2  0  0  0  0  0  0
  1 13  1  0  0  0  0
  2  1  2  0  0  0  0
  3  1  1  0  0  0  0
  4  3  2  0  0  0  0
  5  4  1  0  0  0  0
  6  5  1  0  0  0  0
  7  6  2  0  0  0  0
  8  9  2  0  0  0  0
  8  7  1  0  0  0  0
  9 10  1  0  0  0  0
 10  5  2  0  0  0  0
 11  8  1  0  0  0  0
 12 11  1  0  0  0  0
 13 14  1  0  0  0  0
 14 15  1  1  0  0  0
 14 17  1  0  0  0  0
 15 16  1  0  0  0  0
 17 18  1  0  0  0  0
 18 20  1  0  0  0  0
 20 19  1  0  0  0  0
M  END
>  <MODEL>
2

>  <REMARK>
 VINA RESULT:      -4.1      2.151      7.255
  Name = orig_f12_ligand
  12 active torsions:
  status: ('A' for Active; 'I' for Inactive)
    1  A    between atoms: C_1  and  C_2
    2  A    between atoms: C_2  and  C_3
    3  A    between atoms: C_3  and  C_4
    4  A    between atoms: C_4  and  C_5
    5  A    between atoms: C_5  and  C_6
    6  A    between atoms: C_5  and  O_8
    7  A    between atoms: C_6  and  C_7
    8  A    between atoms: O_8  and  C_9
    9  A    between atoms: C_9  and  C_11
   10  A    between atoms: C_12  and  C_13
   11  A    between atoms: C_16  and  O_17
   12  A    between atoms: O_17  and  C_18
                            x       y       z     vdW  Elec       q    Type
                         _______ _______ _______ _____ _____    ______ ____

>  <TORSDO>
F 9

$$$$
orig_f12_ligand
 OpenBabel10092621023D

 20 20  0  0  1  0  0  0  0  0999 V2000
    8.2400   -1.3870   -2.8750 C   0  0  0  0  0  0  0  0  0  0  0  0
    9.1530   -0.7980   -3.4150 O   0  0  0  0  0  0  0  0  0  0  0  0
    7.8820   -1.2430   -1.4580 C   0  0  0  0  0  3  0  0  0  0  0  0
    7.6960   -0.0190   -0.9510 C   0  0  0  0  0  3  0  0  0  0  0  0
    7.4520    0.2140    0.4830 C   0  0  0  0  0  0  0  0  0  0  0  0
    6.5190    1.1230    0.9270 C   0  0  0  0  0  3  0  0  0  0  0  0
    6.2890    1.2900    2.2830 C   0  0  0  0  0  3  0  0  0  0  0  0
    6.9990    0.5550    3.1940 C   0  0  0  0  0  0  0  0  0  0  0  0
    7.9370   -0.3620    2.7560 C   0  0  0  0  0  3  0  0  0  0  0  0
    8.1690   -0.5200    1.3960 C   0  0  0  0  0  3  0  0  0  0  0  0
    6.8030    0.6660    4.5400 O   0  0  0  0  0  0  0  0  0  0  0  0
    7.5490   -0.1540    5.4340 C   0  0  0  0  0  1  0  0  0  0  0  0
    7.4840   -2.2750   -3.5040 O   0  0  0  0  0  0  0  0  0  0  0  0
    6.1160   -2.3560   -3.1850 C   0  0  1  0  0  3  0  0  0  0  0  0
    5.3020   -1.6250   -4.2420 C   0  0  0  0  0  2  0  0  0  0  0  0
    4.8130   -0.2470   -3.8380 C   0  0  0  0  0  1  0  0  0  0  0  0
    5.7230   -3.8170   -3.1150 C   0  0  0  0  0  2  0  0  0  0  0  0
    4.3120   -4.0840   -3.5270 C   0  0  0  0  0  2  0  0  0  0  0  0
    1.9950   -4.5730   -2.7410 C   0  0  0  0  0  1  0  0  0  0  0  0
    3.4490   -4.4590   -2.3560 C   0  0  0  0  0  2  0  0  0  0  0  0
  1  3  1  0  0  0  0
  2  1  2  0  0  0  0
  3  4  2  0  0  0  0
  4  5  1  0  0  0  0
  5  6  2  0  0  0  0
  5 10  1  0  0  0  0
  6  7  1  0  0  0  0
  7  8  2  0  0  0  0
  8 11  1  0  0  0  0
  9  8  1  0  0  0  0
 10  9  2  0  0  0  0
 11 12  1  0  0  0  0
 13 14  1  0  0  0  0
 13  1  1  0  0  0  0
 14 15  1  6  0  0  0
 14 17  1  0  0  0  0
 15 16  1  0  0  0  0
 18 17  1  0  0  0  0
 18 20  1  0  0  0  0
 19 20  1  0  0  0  0
M  END
>  <MODEL>
3

>  <REMARK>
 VINA RESULT:      -4.0      1.811      2.425
  Name = orig_f12_ligand
  12 active torsions:
  status: ('A' for Active; 'I' for Inactive)
    1  A    between atoms: C_1  and  C_2
    2  A    between atoms: C_2  and  C_3
    3  A    between atoms: C_3  and  C_4
    4  A    between atoms: C_4  and  C_5
    5  A    between atoms: C_5  and  C_6
    6  A    between atoms: C_5  and  O_8
    7  A    between atoms: C_6  and  C_7
    8  A    between atoms: O_8  and  C_9
    9  A    between atoms: C_9  and  C_11
   10  A    between atoms: C_12  and  C_13
   11  A    between atoms: C_16  and  O_17
   12  A    between atoms: O_17  and  C_18
                            x       y       z     vdW  Elec       q    Type
                         _______ _______ _______ _____ _____    ______ ____

>  <TORSDO>
F 9

$$$$
orig_f12_ligand
 OpenBabel10092621023D

 20 20  0  0  1  0  0  0  0  0999 V2000
    9.6890    0.1720   -0.8380 C   0  0  0  0  0  0  0  0  0  0  0  0
   10.5770    0.4720   -1.6070 O   0  0  0  0  0  0  0  0  0  0  0  0
    8.5640   -0.7120   -1.1720 C   0  0  0  0  0  3  0  0  0  0  0  0
    8.2820   -0.9560   -2.4560 C   0  0  0  0  0  3  0  0  0  0  0  0
    7.1020   -1.7330   -2.8730 C   0  0  0  0  0  0  0  0  0  0  0  0
    7.0880   -3.1090   -2.8520 C   0  0  0  0  0  3  0  0  0  0  0  0
    5.9470   -3.8070   -3.2150 C   0  0  0  0  0  3  0  0  0  0  0  0
    4.8260   -3.1280   -3.6090 C   0  0  0  0  0  0  0  0  0  0  0  0
    4.8300   -1.7460   -3.6310 C   0  0  0  0  0  3  0  0  0  0  0  0
    5.9780   -1.0510   -3.2740 C   0  0  0  0  0  3  0  0  0  0  0  0
    3.6690   -3.7630   -3.9620 O   0  0  0  0  0  0  0  0  0  0  0  0
    2.8920   -4.4220   -2.9690 C   0  0  0  0  0  1  0  0  0  0  0  0
    9.6080    0.6550    0.3930 O   0  0  0  0  0  0  0  0  0  0  0  0
    9.1290   -0.1750    1.4240 C   0  0  1  0  0  3  0  0  0  0  0  0
   10.2980   -0.6760    2.2590 C   0  0  0  0  0  2  0  0  0  0  0  0
   10.6230    0.1650    3.4790 C   0  0  0  0  0  1  0  0  0  0  0  0
    8.1590    0.6200    2.2720 C   0  0  0  0  0  2  0  0  0  0  0  0
    6.7470    0.1430    2.1840 C   0  0  0  0  0  2  0  0  0  0  0  0
    6.0930    1.5680    0.2430 C   0  0  0  0  0  1  0  0  0  0  0  0
    5.8230    1.2170    1.6850 C   0  0  0  0  0  2  0  0  0  0  0  0
  1 13  1  0  0  0  0
  2  1  2  0  0  0  0
  3  1  1  0  0  0  0
  4  3  2  0  0  0  0
  5  6  1  0  0  0  0
  5  4  1  0  0  0  0
  7  6  2  0  0  0  0
  8  7  1  0  0  0  0
  9  8  2  0  0  0  0
  9 10  1  0  0  0  0
 10  5  2  0  0  0  0
 11  8  1  0  0  0  0
 11 12  1  0  0  0  0
 13 14  1  0  0  0  0
 14 15  1  1  0  0  0
 14 17  1  0  0  0  0
 15 16  1  0  0  0  0
 18 17  1  0  0  0  0
 19 20  1  0  0  0  0
 20 18  1  0  0  0  0
M  END
>  <MODEL>
4

>  <REMARK>
 VINA RESULT:      -4.0      1.844      6.926
  Name = orig_f12_ligand
  12 active torsions:
  status: ('A' for Active; 'I' for Inactive)
    1  A    between atoms: C_1  and  C_2
    2  A    between atoms: C_2  and  C_3
    3  A    between atoms: C_3  and  C_4
    4  A    between atoms: C_4  and  C_5
    5  A    between atoms: C_5  and  C_6
    6  A    between atoms: C_5  and  O_8
    7  A    between atoms: C_6  and  C_7
    8  A    between atoms: O_8  and  C_9
    9  A    between atoms: C_9  and  C_11
   10  A    between atoms: C_12  and  C_13
   11  A    between atoms: C_16  and  O_17
   12  A    between atoms: O_17  and  C_18
                            x       y       z     vdW  Elec       q    Type
                         _______ _______ _______ _____ _____    ______ ____

>  <TORSDO>
F 9

$$$$
orig_f12_ligand
 OpenBabel10092621023D

 20 20  0  0  1  0  0  0  0  0999 V2000
    5.9820   -1.2530   -4.2120 C   0  0  0  0  0  0  0  0  0  0  0  0
    5.7600   -0.4790   -5.1180 O   0  0  0  0  0  0  0  0  0  0  0  0
    6.5640   -0.8740   -2.9180 C   0  0  0  0  0  3  0  0  0  0  0  0
    7.8930   -0.7950   -2.7960 C   0  0  0  0  0  3  0  0  0  0  0  0
    8.5550   -0.5380   -1.5050 C   0  0  0  0  0  0  0  0  0  0  0  0
    9.8200   -0.0010   -1.4270 C   0  0  0  0  0  3  0  0  0  0  0  0
   10.3980    0.2630   -0.1950 C   0  0  0  0  0  3  0  0  0  0  0  0
    9.7140   -0.0200    0.9560 C   0  0  0  0  0  0  0  0  0  0  0  0
    8.4420   -0.5570    0.8870 C   0  0  0  0  0  3  0  0  0  0  0  0
    7.8710   -0.8270   -0.3500 C   0  0  0  0  0  3  0  0  0  0  0  0
   10.2270    0.2340    2.1960 O   0  0  0  0  0  0  0  0  0  0  0  0
   10.3450    1.5760    2.6520 C   0  0  0  0  0  1  0  0  0  0  0  0
    5.7650   -2.5570   -4.3090 O   0  0  0  0  0  0  0  0  0  0  0  0
    5.3170   -3.2630   -3.1770 C   0  0  1  0  0  3  0  0  0  0  0  0
    3.8640   -3.6690   -3.3720 C   0  0  0  0  0  2  0  0  0  0  0  0
    3.2830   -4.5300   -2.2660 C   0  0  0  0  0  1  0  0  0  0  0  0
    6.1980   -4.4790   -2.9870 C   0  0  0  0  0  2  0  0  0  0  0  0
    6.6260   -5.1220   -4.2660 C   0  0  0  0  0  2  0  0  0  0  0  0
    5.9900   -7.2370   -3.1060 C   0  0  0  0  0  1  0  0  0  0  0  0
    6.0480   -6.4990   -4.4210 C   0  0  0  0  0  2  0  0  0  0  0  0
  1  3  1  0  0  0  0
  2  1  2  0  0  0  0
  3  4  2  0  0  0  0
  4  5  1  0  0  0  0
  5  6  2  0  0  0  0
  5 10  1  0  0  0  0
  6  7  1  0  0  0  0
  7  8  2  0  0  0  0
  8 11  1  0  0  0  0
  9  8  1  0  0  0  0
 10  9  2  0  0  0  0
 11 12  1  0  0  0  0
 13  1  1  0  0  0  0
 13 14  1  0  0  0  0
 14 15  1  6  0  0  0
 14 17  1  0  0  0  0
 15 16  1  0  0  0  0
 18 17  1  0  0  0  0
 20 18  1  0  0  0  0
 20 19  1  0  0  0  0
M  END
>  <MODEL>
5

>  <REMARK>
 VINA RESULT:      -3.9      1.513      2.320
  Name = orig_f12_ligand
  12 active torsions:
  status: ('A' for Active; 'I' for Inactive)
    1  A    between atoms: C_1  and  C_2
    2  A    between atoms: C_2  and  C_3
    3  A    between atoms: C_3  and  C_4
    4  A    between atoms: C_4  and  C_5
    5  A    between atoms: C_5  and  C_6
    6  A    between atoms: C_5  and  O_8
    7  A    between atoms: C_6  and  C_7
    8  A    between atoms: O_8  and  C_9
    9  A    between atoms: C_9  and  C_11
   10  A    between atoms: C_12  and  C_13
   11  A    between atoms: C_16  and  O_17
   12  A    between atoms: O_17  and  C_18
                            x       y       z     vdW  Elec       q    Type
                         _______ _______ _______ _____ _____    ______ ____

>  <TORSDO>
F 9

$$$$
orig_f12_ligand
 OpenBabel10092621023D

 20 20  0  0  1  0  0  0  0  0999 V2000
    6.1750    1.0100    1.3170 C   0  0  0  0  0  0  0  0  0  0  0  0
    5.1190    1.6060    1.2870 O   0  0  0  0  0  0  0  0  0  0  0  0
    6.5640    0.0620    2.3690 C   0  0  0  0  0  3  0  0  0  0  0  0
    6.8750    0.5250    3.5850 C   0  0  0  0  0  3  0  0  0  0  0  0
    7.3880   -0.3470    4.6560 C   0  0  0  0  0  0  0  0  0  0  0  0
    7.8640   -1.6130    4.4030 C   0  0  0  0  0  3  0  0  0  0  0  0
    8.3740   -2.3920    5.4290 C   0  0  0  0  0  3  0  0  0  0  0  0
    8.3990   -1.9070    6.7090 C   0  0  0  0  0  0  0  0  0  0  0  0
    7.9250   -0.6350    6.9720 C   0  0  0  0  0  3  0  0  0  0  0  0
    7.4070    0.1390    5.9410 C   0  0  0  0  0  3  0  0  0  0  0  0
    8.9050   -2.6220    7.7560 O   0  0  0  0  0  0  0  0  0  0  0  0
    9.6920   -3.7800    7.5070 C   0  0  0  0  0  1  0  0  0  0  0  0
    7.1280    1.1880    0.4140 O   0  0  0  0  0  0  0  0  0  0  0  0
    7.8820    0.0780   -0.0130 C   0  0  1  0  0  3  0  0  0  0  0  0
    7.5950   -0.1980   -1.4810 C   0  0  0  0  0  2  0  0  0  0  0  0
    7.6570   -1.6590   -1.8850 C   0  0  0  0  0  1  0  0  0  0  0  0
    9.3490    0.3800    0.2040 C   0  0  0  0  0  2  0  0  0  0  0  0
    9.9500   -0.3440    1.3650 C   0  0  0  0  0  2  0  0  0  0  0  0
   10.1350    1.8180    2.5990 C   0  0  0  0  0  1  0  0  0  0  0  0
   10.8400    0.5500    2.1810 C   0  0  0  0  0  2  0  0  0  0  0  0
  1  3  1  0  0  0  0
  2  1  2  0  0  0  0
  3  4  2  0  0  0  0
  4  5  1  0  0  0  0
  5 10  1  0  0  0  0
  6  5  2  0  0  0  0
  6  7  1  0  0  0  0
  7  8  2  0  0  0  0
  8  9  1  0  0  0  0
  8 11  1  0  0  0  0
 10  9  2  0  0  0  0
 12 11  1  0  0  0  0
 13  1  1  0  0  0  0
 14 15  1  6  0  0  0
 14 17  1  0  0  0  0
 14 13  1  0  0  0  0
 16 15  1  0  0  0  0
 17 18  1  0  0  0  0
 18 20  1  0  0  0  0
 20 19  1  0  0  0  0
M  END
>  <MODEL>
6

>  <REMARK>
 VINA RESULT:      -3.9      3.486      6.901
  Name = orig_f12_ligand
  12 active torsions:
  status: ('A' for Active; 'I' for Inactive)
    1  A    between atoms: C_1  and  C_2
    2  A    between atoms: C_2  and  C_3
    3  A    between atoms: C_3  and  C_4
    4  A    between atoms: C_4  and  C_5
    5  A    between atoms: C_5  and  C_6
    6  A    between atoms: C_5  and  O_8
    7  A    between atoms: C_6  and  C_7
    8  A    between atoms: O_8  and  C_9
    9  A    between atoms: C_9  and  C_11
   10  A    between atoms: C_12  and  C_13
   11  A    between atoms: C_16  and  O_17
   12  A    between atoms: O_17  and  C_18
                            x       y       z     vdW  Elec       q    Type
                         _______ _______ _______ _____ _____    ______ ____

>  <TORSDO>
F 9

$$$$
orig_f12_ligand
 OpenBabel10092621023D

 20 20  0  0  1  0  0  0  0  0999 V2000
    6.6170    0.8990    1.5470 C   0  0  0  0  0  0  0  0  0  0  0  0
    5.8530    1.8070    1.7960 O   0  0  0  0  0  0  0  0  0  0  0  0
    7.1890    0.6360    0.2190 C   0  0  0  0  0  3  0  0  0  0  0  0
    7.4960   -0.6200   -0.1240 C   0  0  0  0  0  3  0  0  0  0  0  0
    8.1800   -0.9500   -1.3860 C   0  0  0  0  0  0  0  0  0  0  0  0
    7.6990   -1.9070   -2.2500 C   0  0  0  0  0  3  0  0  0  0  0  0
    8.3480   -2.1660   -3.4470 C   0  0  0  0  0  3  0  0  0  0  0  0
    9.4840   -1.4740   -3.7730 C   0  0  0  0  0  0  0  0  0  0  0  0
    9.9730   -0.5090   -2.9120 C   0  0  0  0  0  3  0  0  0  0  0  0
    9.3230   -0.2590   -1.7100 C   0  0  0  0  0  3  0  0  0  0  0  0
   10.1550   -1.6750   -4.9440 O   0  0  0  0  0  0  0  0  0  0  0  0
   10.5690   -2.9870   -5.3070 C   0  0  0  0  0  1  0  0  0  0  0  0
    6.9880    0.0010    2.4470 O   0  0  0  0  0  0  0  0  0  0  0  0
    7.9410    0.3590    3.4190 C   0  0  1  0  0  3  0  0  0  0  0  0
    7.2580    0.5180    4.7690 C   0  0  0  0  0  2  0  0  0  0  0  0
    6.9200    1.9460    5.1540 C   0  0  0  0  0  1  0  0  0  0  0  0
    9.0030   -0.7190    3.4740 C   0  0  0  0  0  2  0  0  0  0  0  0
    9.9960   -0.6460    2.3610 C   0  0  0  0  0  2  0  0  0  0  0  0
   11.6540    0.8430    1.2380 C   0  0  0  0  0  1  0  0  0  0  0  0
   10.3830    0.7710    2.0470 C   0  0  0  0  0  2  0  0  0  0  0  0
  1  2  2  0  0  0  0
  1 13  1  0  0  0  0
  3  1  1  0  0  0  0
  4  3  2  0  0  0  0
  5  4  1  0  0  0  0
  6  5  2  0  0  0  0
  7  6  1  0  0  0  0
  8  7  2  0  0  0  0
  8  9  1  0  0  0  0
  9 10  2  0  0  0  0
 10  5  1  0  0  0  0
 11  8  1  0  0  0  0
 12 11  1  0  0  0  0
 13 14  1  0  0  0  0
 14 17  1  1  0  0  0
 14 15  1  0  0  0  0
 15 16  1  0  0  0  0
 18 17  1  0  0  0  0
 19 20  1  0  0  0  0
 20 18  1  0  0  0  0
M  END
>  <MODEL>
7

>  <REMARK>
 VINA RESULT:      -3.9      2.895      7.318
  Name = orig_f12_ligand
  12 active torsions:
  status: ('A' for Active; 'I' for Inactive)
    1  A    between atoms: C_1  and  C_2
    2  A    between atoms: C_2  and  C_3
    3  A    between atoms: C_3  and  C_4
    4  A    between atoms: C_4  and  C_5
    5  A    between atoms: C_5  and  C_6
    6  A    between atoms: C_5  and  O_8
    7  A    between atoms: C_6  and  C_7
    8  A    between atoms: O_8  and  C_9
    9  A    between atoms: C_9  and  C_11
   10  A    between atoms: C_12  and  C_13
   11  A    between atoms: C_16  and  O_17
   12  A    between atoms: O_17  and  C_18
                            x       y       z     vdW  Elec       q    Type
                         _______ _______ _______ _____ _____    ______ ____

>  <TORSDO>
F 9

$$$$
orig_f12_ligand
 OpenBabel10092621023D

 20 20  0  0  1  0  0  0  0  0999 V2000
    9.0420   -3.8500    6.3280 C   0  0  0  0  0  0  0  0  0  0  0  0
   10.1650   -4.2580    6.5370 O   0  0  0  0  0  0  0  0  0  0  0  0
    8.6970   -2.8580    5.3010 C   0  0  0  0  0  3  0  0  0  0  0  0
    7.9700   -1.7890    5.6430 C   0  0  0  0  0  3  0  0  0  0  0  0
    7.4830   -0.8130    4.6520 C   0  0  0  0  0  0  0  0  0  0  0  0
    7.3740    0.5280    4.9390 C   0  0  0  0  0  3  0  0  0  0  0  0
    6.9480    1.4230    3.9710 C   0  0  0  0  0  3  0  0  0  0  0  0
    6.6220    0.9740    2.7200 C   0  0  0  0  0  0  0  0  0  0  0  0
    6.7300   -0.3710    2.4220 C   0  0  0  0  0  3  0  0  0  0  0  0
    7.1500   -1.2660    3.3990 C   0  0  0  0  0  3  0  0  0  0  0  0
    6.2120    1.8120    1.7220 O   0  0  0  0  0  0  0  0  0  0  0  0
    6.4350    1.4550    0.3630 C   0  0  0  0  0  1  0  0  0  0  0  0
    7.9940   -4.2250    7.0460 O   0  0  0  0  0  0  0  0  0  0  0  0
    7.5650   -5.5640    6.9830 C   0  0  1  0  0  3  0  0  0  0  0  0
    7.3950   -6.1120    8.3920 C   0  0  0  0  0  2  0  0  0  0  0  0
    6.1940   -7.0170    8.5910 C   0  0  0  0  0  1  0  0  0  0  0  0
    6.2580   -5.6170    6.2220 C   0  0  0  0  0  2  0  0  0  0  0  0
    6.3610   -6.2840    4.8890 C   0  0  0  0  0  2  0  0  0  0  0  0
    6.7960   -8.6930    4.4030 C   0  0  0  0  0  1  0  0  0  0  0  0
    5.8040   -7.6790    4.9170 C   0  0  0  0  0  2  0  0  0  0  0  0
  1  2  2  0  0  0  0
  1 13  1  0  0  0  0
  3  4  2  0  0  0  0
  3  1  1  0  0  0  0
  5  6  1  0  0  0  0
  5  4  1  0  0  0  0
  7  6  2  0  0  0  0
  8  7  1  0  0  0  0
  9  8  2  0  0  0  0
  9 10  1  0  0  0  0
 10  5  2  0  0  0  0
 11  8  1  0  0  0  0
 12 11  1  0  0  0  0
 14 17  1  1  0  0  0
 14 13  1  0  0  0  0
 14 15  1  0  0  0  0
 15 16  1  0  0  0  0
 18 20  1  0  0  0  0
 18 17  1  0  0  0  0
 19 20  1  0  0  0  0
M  END
>  <MODEL>
8

>  <REMARK>
 VINA RESULT:      -3.7      6.308      8.762
  Name = orig_f12_ligand
  12 active torsions:
  status: ('A' for Active; 'I' for Inactive)
    1  A    between atoms: C_1  and  C_2
    2  A    between atoms: C_2  and  C_3
    3  A    between atoms: C_3  and  C_4
    4  A    between atoms: C_4  and  C_5
    5  A    between atoms: C_5  and  C_6
    6  A    between atoms: C_5  and  O_8
    7  A    between atoms: C_6  and  C_7
    8  A    between atoms: O_8  and  C_9
    9  A    between atoms: C_9  and  C_11
   10  A    between atoms: C_12  and  C_13
   11  A    between atoms: C_16  and  O_17
   12  A    between atoms: O_17  and  C_18
                            x       y       z     vdW  Elec       q    Type
                         _______ _______ _______ _____ _____    ______ ____

>  <TORSDO>
F 9

$$$$
orig_f12_ligand
 OpenBabel10092621023D

 20 20  0  0  1  0  0  0  0  0999 V2000
    6.9560    1.8800    4.4130 C   0  0  0  0  0  0  0  0  0  0  0  0
    6.6490    2.8920    5.0070 O   0  0  0  0  0  0  0  0  0  0  0  0
    6.9890    0.5410    5.0160 C   0  0  0  0  0  3  0  0  0  0  0  0
    8.1310    0.0900    5.5460 C   0  0  0  0  0  3  0  0  0  0  0  0
    8.2770   -1.2820    6.0610 C   0  0  0  0  0  0  0  0  0  0  0  0
    8.2650   -2.3800    5.2300 C   0  0  0  0  0  3  0  0  0  0  0  0
    8.4420   -3.6540    5.7440 C   0  0  0  0  0  3  0  0  0  0  0  0
    8.6210   -3.8300    7.0900 C   0  0  0  0  0  0  0  0  0  0  0  0
    8.6370   -2.7340    7.9310 C   0  0  0  0  0  3  0  0  0  0  0  0
    8.4500   -1.4590    7.4120 C   0  0  0  0  0  3  0  0  0  0  0  0
    8.8170   -5.0600    7.6500 O   0  0  0  0  0  0  0  0  0  0  0  0
    8.2560   -5.3550    8.9240 C   0  0  0  0  0  1  0  0  0  0  0  0
    7.3480    1.8780    3.1470 O   0  0  0  0  0  0  0  0  0  0  0  0
    6.8610    0.8800    2.2820 C   0  0  1  0  0  3  0  0  0  0  0  0
    5.6150    1.3850    1.5710 C   0  0  0  0  0  2  0  0  0  0  0  0
    5.7520    1.5500    0.0690 C   0  0  0  0  0  1  0  0  0  0  0  0
    7.9480    0.5330    1.2870 C   0  0  0  0  0  2  0  0  0  0  0  0
    8.7420   -0.6770    1.6560 C   0  0  0  0  0  2  0  0  0  0  0  0
   10.7860   -0.7090    3.0870 C   0  0  0  0  0  1  0  0  0  0  0  0
   10.2130   -0.3800    1.7310 C   0  0  0  0  0  2  0  0  0  0  0  0
  1  2  2  0  0  0  0
  1  3  1  0  0  0  0
  3  4  2  0  0  0  0
  4  5  1  0  0  0  0
  5 10  1  0  0  0  0
  6  7  1  0  0  0  0
  6  5  2  0  0  0  0
  7  8  2  0  0  0  0
  8 11  1  0  0  0  0
  8  9  1  0  0  0  0
 10  9  2  0  0  0  0
 11 12  1  0  0  0  0
 13  1  1  0  0  0  0
 14 17  1  6  0  0  0
 14 13  1  0  0  0  0
 15 14  1  0  0  0  0
 16 15  1  0  0  0  0
 17 18  1  0  0  0  0
 18 20  1  0  0  0  0
 20 19  1  0  0  0  0
M  END
>  <MODEL>
9

>  <REMARK>
 VINA RESULT:      -3.6      5.276      8.173
  Name = orig_f12_ligand
  12 active torsions:
  status: ('A' for Active; 'I' for Inactive)
    1  A    between atoms: C_1  and  C_2
    2  A    between atoms: C_2  and  C_3
    3  A    between atoms: C_3  and  C_4
    4  A    between atoms: C_4  and  C_5
    5  A    between atoms: C_5  and  C_6
    6  A    between atoms: C_5  and  O_8
    7  A    between atoms: C_6  and  C_7
    8  A    between atoms: O_8  and  C_9
    9  A    between atoms: C_9  and  C_11
   10  A    between atoms: C_12  and  C_13
   11  A    between atoms: C_16  and  O_17
   12  A    between atoms: O_17  and  C_18
                            x       y       z     vdW  Elec       q    Type
                         _______ _______ _______ _____ _____    ______ ____

>  <TORSDO>
F 9

$$$$
