shuffle_control_dockpose7
     RDKit          3D

 20 20  0  0  0  0  0  0  0  0999 V2000
    2.1960    0.3100    0.9490 C   0  0  0  0  0  0  0  0  0  0  0  0
    3.0430    1.5520    0.9460 C   0  0  0  0  0  0  0  0  0  0  0  0
    2.2400    2.7800    0.6050 C   0  0  0  0  0  0  0  0  0  0  0  0
    0.8130    2.4550    0.3020 C   0  0  0  0  0  0  0  0  0  0  0  0
   -0.0990    3.6600    0.2760 C   0  0  2  0  0  0  0  0  0  0  0  0
    0.3230    4.6240    1.3750 C   0  0  0  0  0  0  0  0  0  0  0  0
   -0.4260    4.4870    2.6560 C   0  0  0  0  0  0  0  0  0  0  0  0
   -1.4240    3.2250    0.4990 O   0  0  0  0  0  0  0  0  0  0  0  0
   -2.2910    3.1510   -0.5170 C   0  0  0  0  0  0  0  0  0  0  0  0
   -3.3170    2.5320   -0.4280 O   0  0  0  0  0  0  0  0  0  0  0  0
   -1.8610    3.8910   -1.7280 C   0  0  0  0  0  0  0  0  0  0  0  0
   -2.7420    4.5850   -2.4540 C   0  0  0  0  0  0  0  0  0  0  0  0
   -2.3960    5.3250   -3.6900 C   0  0  0  0  0  0  0  0  0  0  0  0
   -1.1240    5.3540   -4.1990 C   0  0  0  0  0  0  0  0  0  0  0  0
   -0.8430    6.0610   -5.3640 C   0  0  0  0  0  0  0  0  0  0  0  0
   -1.8350    6.7420   -6.0200 C   0  0  0  0  0  0  0  0  0  0  0  0
   -1.6250    7.4470   -7.1690 O   0  0  0  0  0  0  0  0  0  0  0  0
   -0.6000    7.0560   -8.0620 C   0  0  0  0  0  0  0  0  0  0  0  0
   -3.1110    6.7180   -5.5130 C   0  0  0  0  0  0  0  0  0  0  0  0
   -3.3930    6.0140   -4.3490 C   0  0  0  0  0  0  0  0  0  0  0  0
  2  1  1  0
  3  2  1  0
  4  3  1  0
  5  4  1  1
  6  5  1  0
  7  6  1  0
  8  5  1  0
  9  8  1  0
 10  9  2  0
 11  9  1  0
 12 11  2  3
 13 12  1  0
 14 13  1  0
 15 14  2  0
 16 15  1  0
 17 16  1  0
 18 17  1  0
 19 16  2  0
 20 19  1  0
 20 13  2  0
M  END
$$$$
