bgox31_5_ligand
 OpenBabel10062622383D

 18 19  0  0  0  0  0  0  0  0999 V2000
    5.0540    0.1790    1.6170 C   0  0  0  0  0  0  0  0  0  0  0  0
    4.1340   -0.4030    2.4300 C   0  0  0  0  0  3  0  0  0  0  0  0
    4.5670   -1.0780    3.5910 C   0  0  0  0  0  3  0  0  0  0  0  0
    5.8970   -1.1880    3.9390 C   0  0  0  0  0  0  0  0  0  0  0  0
    6.8400   -0.6020    3.0980 C   0  0  0  0  0  0  0  0  0  0  0  0
    6.4190    0.0810    1.9250 C   0  0  0  0  0  3  0  0  0  0  0  0
    5.2750    1.2380   -0.6550 C   0  0  0  0  0  1  0  0  0  0  0  0
    4.4560    0.8170    0.4730 O   0  0  0  0  0  0  0  0  0  0  0  0
    6.2690   -1.9120    5.1310 C   0  0  0  0  0  0  0  0  0  0  0  0
    6.9590   -2.9320    5.0150 O   0  0  0  0  0  0  0  0  0  0  0  0
    5.7370   -1.4940    6.4670 C   0  0  0  0  0  0  0  0  0  0  0  0
    5.8140   -0.2080    6.9720 C   0  0  0  0  0  3  0  0  0  0  0  0
    5.2900    0.1190    8.2530 C   0  0  0  0  0  3  0  0  0  0  0  0
    4.6740   -0.8090    9.0390 C   0  0  0  0  0  3  0  0  0  0  0  0
    4.5550   -2.0920    8.5620 C   0  0  0  0  0  3  0  0  0  0  0  0
    5.1110   -2.4160    7.3020 C   0  0  0  0  0  3  0  0  0  0  0  0
    8.1560   -0.6800    3.4140 O   0  0  0  0  0  0  0  0  0  0  0  0
    8.8420   -0.5160    2.7190 H   0  0  0  0  0  0  0  0  0  0  0  0
  1  6  2  0  0  0  0
  1  2  1  0  0  0  0
  2  3  2  0  0  0  0
  3  4  1  0  0  0  0
  4  9  1  0  0  0  0
  5 17  1  0  0  0  0
  5  4  2  0  0  0  0
  6  5  1  0  0  0  0
  7  8  1  0  0  0  0
  8  1  1  0  0  0  0
  9 11  1  0  0  0  0
 10  9  2  0  0  0  0
 11 12  2  0  0  0  0
 11 16  1  0  0  0  0
 12 13  1  0  0  0  0
 13 14  2  0  0  0  0
 15 14  1  0  0  0  0
 16 15  2  0  0  0  0
 18 17  1  0  0  0  0
M  END
>  <MODEL>
1

>  <REMARK>
 VINA RESULT:      -5.0      0.000      0.000
  Name = bgox31_5_ligand
  5 active torsions:
  status: ('A' for Active; 'I' for Inactive)
    1  A    between atoms: C_1  and  O_2
    2  A    between atoms: O_2  and  C_3
    3  A    between atoms: C_6  and  C_7
    4  A    between atoms: C_7  and  C_9
    5  A    between atoms: C_15  and  O_16
                            x       y       z     vdW  Elec       q    Type
                         _______ _______ _______ _____ _____    ______ ____

>  <TORSDO>
F 4

$$$$
bgox31_5_ligand
 OpenBabel10062622383D

 18 19  0  0  0  0  0  0  0  0999 V2000
    5.6540   -1.0480    3.5910 C   0  0  0  0  0  0  0  0  0  0  0  0
    6.8070   -0.6540    2.9880 C   0  0  0  0  0  3  0  0  0  0  0  0
    6.7410    0.1090    1.8030 C   0  0  0  0  0  3  0  0  0  0  0  0
    5.5470    0.4680    1.2110 C   0  0  0  0  0  0  0  0  0  0  0  0
    4.3670    0.0520    1.8220 C   0  0  0  0  0  0  0  0  0  0  0  0
    4.4180   -0.7170    3.0170 C   0  0  0  0  0  3  0  0  0  0  0  0
    5.5370   -1.3010    6.0920 C   0  0  0  0  0  1  0  0  0  0  0  0
    5.8900   -1.8250    4.7800 O   0  0  0  0  0  0  0  0  0  0  0  0
    5.5550    1.2320   -0.0130 C   0  0  0  0  0  0  0  0  0  0  0  0
    4.6630    1.0270   -0.8470 O   0  0  0  0  0  0  0  0  0  0  0  0
    6.6820    2.1720   -0.3110 C   0  0  0  0  0  0  0  0  0  0  0  0
    6.8960    3.3700    0.3470 C   0  0  0  0  0  3  0  0  0  0  0  0
    7.9870    4.2170    0.0100 C   0  0  0  0  0  3  0  0  0  0  0  0
    8.8810    3.8890   -0.9650 C   0  0  0  0  0  3  0  0  0  0  0  0
    8.7170    2.6950   -1.6260 C   0  0  0  0  0  3  0  0  0  0  0  0
    7.6090    1.8750   -1.3080 C   0  0  0  0  0  3  0  0  0  0  0  0
    3.1750    0.3960    1.2760 O   0  0  0  0  0  0  0  0  0  0  0  0
    2.3760    0.4910    1.8530 H   0  0  0  0  0  0  0  0  0  0  0  0
  1  8  1  0  0  0  0
  2  1  2  0  0  0  0
  3  2  1  0  0  0  0
  4  3  2  0  0  0  0
  4  5  1  0  0  0  0
  5  6  2  0  0  0  0
  6  1  1  0  0  0  0
  8  7  1  0  0  0  0
  9  4  1  0  0  0  0
 10  9  2  0  0  0  0
 11  9  1  0  0  0  0
 11 12  1  0  0  0  0
 13 12  2  0  0  0  0
 14 13  1  0  0  0  0
 15 16  1  0  0  0  0
 15 14  2  0  0  0  0
 16 11  2  0  0  0  0
 17  5  1  0  0  0  0
 17 18  1  0  0  0  0
M  END
>  <MODEL>
2

>  <REMARK>
 VINA RESULT:      -4.9      2.148      7.038
  Name = bgox31_5_ligand
  5 active torsions:
  status: ('A' for Active; 'I' for Inactive)
    1  A    between atoms: C_1  and  O_2
    2  A    between atoms: O_2  and  C_3
    3  A    between atoms: C_6  and  C_7
    4  A    between atoms: C_7  and  C_9
    5  A    between atoms: C_15  and  O_16
                            x       y       z     vdW  Elec       q    Type
                         _______ _______ _______ _____ _____    ______ ____

>  <TORSDO>
F 4

$$$$
bgox31_5_ligand
 OpenBabel10062622383D

 18 19  0  0  0  0  0  0  0  0999 V2000
    5.4550   -1.0080    4.1030 C   0  0  0  0  0  0  0  0  0  0  0  0
    6.6890   -0.8580    3.5530 C   0  0  0  0  0  3  0  0  0  0  0  0
    6.8040   -0.3310    2.2490 C   0  0  0  0  0  3  0  0  0  0  0  0
    5.7100    0.0310    1.4900 C   0  0  0  0  0  0  0  0  0  0  0  0
    4.4460   -0.1350    2.0500 C   0  0  0  0  0  0  0  0  0  0  0  0
    4.3140   -0.6650    3.3630 C   0  0  0  0  0  3  0  0  0  0  0  0
    5.3220   -0.7160    6.5990 C   0  0  0  0  0  1  0  0  0  0  0  0
    5.5060   -1.5640    5.4300 O   0  0  0  0  0  0  0  0  0  0  0  0
    5.9020    0.5440    0.1540 C   0  0  0  0  0  0  0  0  0  0  0  0
    5.4200    1.6470   -0.1330 O   0  0  0  0  0  0  0  0  0  0  0  0
    6.5740   -0.2940   -0.8880 C   0  0  0  0  0  0  0  0  0  0  0  0
    7.0250    0.1860   -2.1060 C   0  0  0  0  0  3  0  0  0  0  0  0
    7.6540   -0.6690   -3.0530 C   0  0  0  0  0  3  0  0  0  0  0  0
    7.8560   -1.9930   -2.8070 C   0  0  0  0  0  3  0  0  0  0  0  0
    7.4450   -2.5040   -1.5990 C   0  0  0  0  0  3  0  0  0  0  0  0
    6.7890   -1.6540   -0.6770 C   0  0  0  0  0  3  0  0  0  0  0  0
    3.3480    0.2210    1.3390 O   0  0  0  0  0  0  0  0  0  0  0  0
    2.4460    0.1060    1.7310 H   0  0  0  0  0  0  0  0  0  0  0  0
  1  8  1  0  0  0  0
  2  1  1  0  0  0  0
  3  2  2  0  0  0  0
  4  5  2  0  0  0  0
  4  3  1  0  0  0  0
  5  6  1  0  0  0  0
  6  1  2  0  0  0  0
  8  7  1  0  0  0  0
  9  4  1  0  0  0  0
 10  9  2  0  0  0  0
 11 16  1  0  0  0  0
 11  9  1  0  0  0  0
 12 11  2  0  0  0  0
 13 14  2  0  0  0  0
 13 12  1  0  0  0  0
 14 15  1  0  0  0  0
 15 16  2  0  0  0  0
 17 18  1  0  0  0  0
 17  5  1  0  0  0  0
M  END
>  <MODEL>
3

>  <REMARK>
 VINA RESULT:      -4.7      2.293      7.057
  Name = bgox31_5_ligand
  5 active torsions:
  status: ('A' for Active; 'I' for Inactive)
    1  A    between atoms: C_1  and  O_2
    2  A    between atoms: O_2  and  C_3
    3  A    between atoms: C_6  and  C_7
    4  A    between atoms: C_7  and  C_9
    5  A    between atoms: C_15  and  O_16
                            x       y       z     vdW  Elec       q    Type
                         _______ _______ _______ _____ _____    ______ ____

>  <TORSDO>
F 4

$$$$
bgox31_5_ligand
 OpenBabel10062622383D

 18 19  0  0  0  0  0  0  0  0999 V2000
    8.9000    3.6520   -0.8550 C   0  0  0  0  0  0  0  0  0  0  0  0
    8.0460    3.9400    0.1630 C   0  0  0  0  0  3  0  0  0  0  0  0
    6.9390    3.0960    0.3950 C   0  0  0  0  0  3  0  0  0  0  0  0
    6.6700    1.9860   -0.3800 C   0  0  0  0  0  0  0  0  0  0  0  0
    7.5390    1.7000   -1.4300 C   0  0  0  0  0  0  0  0  0  0  0  0
    8.6590    2.5410   -1.6760 C   0  0  0  0  0  3  0  0  0  0  0  0
    9.7120    5.9550   -1.4620 C   0  0  0  0  0  1  0  0  0  0  0  0
    9.9690    4.6100   -0.9670 O   0  0  0  0  0  0  0  0  0  0  0  0
    5.5070    1.1790   -0.0970 C   0  0  0  0  0  0  0  0  0  0  0  0
    4.5490    1.2260   -0.8790 O   0  0  0  0  0  0  0  0  0  0  0  0
    5.4240    0.3900    1.1720 C   0  0  0  0  0  0  0  0  0  0  0  0
    6.5200   -0.0500    1.8930 C   0  0  0  0  0  3  0  0  0  0  0  0
    6.3680   -0.8000    3.0920 C   0  0  0  0  0  3  0  0  0  0  0  0
    5.1410   -1.1100    3.5980 C   0  0  0  0  0  3  0  0  0  0  0  0
    4.0260   -0.6690    2.9250 C   0  0  0  0  0  3  0  0  0  0  0  0
    4.1880    0.0450    1.7140 C   0  0  0  0  0  3  0  0  0  0  0  0
    7.3140    0.6110   -2.2050 O   0  0  0  0  0  0  0  0  0  0  0  0
    6.3870    0.3130   -2.3820 H   0  0  0  0  0  0  0  0  0  0  0  0
  1  2  1  0  0  0  0
  2  3  2  0  0  0  0
  4  9  1  0  0  0  0
  4  3  1  0  0  0  0
  5  4  2  0  0  0  0
  6  5  1  0  0  0  0
  6  1  2  0  0  0  0
  7  8  1  0  0  0  0
  8  1  1  0  0  0  0
  9 11  1  0  0  0  0
 10  9  2  0  0  0  0
 11 16  2  0  0  0  0
 11 12  1  0  0  0  0
 12 13  2  0  0  0  0
 13 14  1  0  0  0  0
 15 14  2  0  0  0  0
 16 15  1  0  0  0  0
 17  5  1  0  0  0  0
 18 17  1  0  0  0  0
M  END
>  <MODEL>
4

>  <REMARK>
 VINA RESULT:      -4.7      3.567      5.904
  Name = bgox31_5_ligand
  5 active torsions:
  status: ('A' for Active; 'I' for Inactive)
    1  A    between atoms: C_1  and  O_2
    2  A    between atoms: O_2  and  C_3
    3  A    between atoms: C_6  and  C_7
    4  A    between atoms: C_7  and  C_9
    5  A    between atoms: C_15  and  O_16
                            x       y       z     vdW  Elec       q    Type
                         _______ _______ _______ _____ _____    ______ ____

>  <TORSDO>
F 4

$$$$
bgox31_5_ligand
 OpenBabel10062622383D

 18 19  0  0  0  0  0  0  0  0999 V2000
    8.9350    1.6980   -2.0310 C   0  0  0  0  0  0  0  0  0  0  0  0
    8.4470    0.4300   -1.9790 C   0  0  0  0  0  3  0  0  0  0  0  0
    7.2860    0.1670   -1.2210 C   0  0  0  0  0  3  0  0  0  0  0  0
    6.6210    1.1440   -0.5100 C   0  0  0  0  0  0  0  0  0  0  0  0
    7.1290    2.4400   -0.5530 C   0  0  0  0  0  0  0  0  0  0  0  0
    8.2980    2.7210   -1.3130 C   0  0  0  0  0  3  0  0  0  0  0  0
   10.2570    1.0380   -4.0680 C   0  0  0  0  0  1  0  0  0  0  0  0
   10.1260    1.8000   -2.8350 O   0  0  0  0  0  0  0  0  0  0  0  0
    5.4510    0.7990    0.2610 C   0  0  0  0  0  0  0  0  0  0  0  0
    4.3370    1.1060   -0.1810 O   0  0  0  0  0  0  0  0  0  0  0  0
    5.5940    0.1820    1.6180 C   0  0  0  0  0  0  0  0  0  0  0  0
    6.7560    0.2050    2.3690 C   0  0  0  0  0  3  0  0  0  0  0  0
    6.8230   -0.4050    3.6520 C   0  0  0  0  0  3  0  0  0  0  0  0
    5.7480   -1.0290    4.2100 C   0  0  0  0  0  3  0  0  0  0  0  0
    4.5680   -1.0530    3.5070 C   0  0  0  0  0  3  0  0  0  0  0  0
    4.5210   -0.4740    2.2170 C   0  0  0  0  0  3  0  0  0  0  0  0
    6.4960    3.4290    0.1240 O   0  0  0  0  0  0  0  0  0  0  0  0
    5.9800    4.1150   -0.3700 H   0  0  0  0  0  0  0  0  0  0  0  0
  1  2  2  0  0  0  0
  1  6  1  0  0  0  0
  2  3  1  0  0  0  0
  3  4  2  0  0  0  0
  4  9  1  0  0  0  0
  5  4  1  0  0  0  0
  5 17  1  0  0  0  0
  6  5  2  0  0  0  0
  7  8  1  0  0  0  0
  8  1  1  0  0  0  0
  9 11  1  0  0  0  0
 10  9  2  0  0  0  0
 11 16  2  0  0  0  0
 11 12  1  0  0  0  0
 12 13  2  0  0  0  0
 13 14  1  0  0  0  0
 15 14  2  0  0  0  0
 16 15  1  0  0  0  0
 18 17  1  0  0  0  0
M  END
>  <MODEL>
5

>  <REMARK>
 VINA RESULT:      -4.6      3.207      5.517
  Name = bgox31_5_ligand
  5 active torsions:
  status: ('A' for Active; 'I' for Inactive)
    1  A    between atoms: C_1  and  O_2
    2  A    between atoms: O_2  and  C_3
    3  A    between atoms: C_6  and  C_7
    4  A    between atoms: C_7  and  C_9
    5  A    between atoms: C_15  and  O_16
                            x       y       z     vdW  Elec       q    Type
                         _______ _______ _______ _____ _____    ______ ____

>  <TORSDO>
F 4

$$$$
bgox31_5_ligand
 OpenBabel10062622383D

 18 19  0  0  0  0  0  0  0  0999 V2000
    8.3140    2.7930   -1.3990 C   0  0  0  0  0  0  0  0  0  0  0  0
    7.6370    3.3690   -0.3710 C   0  0  0  0  0  3  0  0  0  0  0  0
    6.6100    2.6450    0.2720 C   0  0  0  0  0  3  0  0  0  0  0  0
    6.2460    1.3690   -0.1070 C   0  0  0  0  0  0  0  0  0  0  0  0
    6.9320    0.7850   -1.1690 C   0  0  0  0  0  0  0  0  0  0  0  0
    7.9690    1.5020   -1.8260 C   0  0  0  0  0  3  0  0  0  0  0  0
    9.0060    4.5500   -3.0620 C   0  0  0  0  0  1  0  0  0  0  0  0
    9.3210    3.6610   -1.9530 O   0  0  0  0  0  0  0  0  0  0  0  0
    5.1710    0.6960    0.5820 C   0  0  0  0  0  0  0  0  0  0  0  0
    4.0280    0.7690    0.1140 O   0  0  0  0  0  0  0  0  0  0  0  0
    5.4210    0.0170    1.8930 C   0  0  0  0  0  0  0  0  0  0  0  0
    4.4260   -0.4250    2.7470 C   0  0  0  0  0  3  0  0  0  0  0  0
    4.7350   -1.0590    3.9820 C   0  0  0  0  0  3  0  0  0  0  0  0
    6.0200   -1.2760    4.3790 C   0  0  0  0  0  3  0  0  0  0  0  0
    7.0380   -0.8740    3.5480 C   0  0  0  0  0  3  0  0  0  0  0  0
    6.7210   -0.2120    2.3380 C   0  0  0  0  0  3  0  0  0  0  0  0
    6.6100   -0.4720   -1.5610 O   0  0  0  0  0  0  0  0  0  0  0  0
    5.6610   -0.7210   -1.6950 H   0  0  0  0  0  0  0  0  0  0  0  0
  1  2  1  0  0  0  0
  2  3  2  0  0  0  0
  4  3  1  0  0  0  0
  4  9  1  0  0  0  0
  5  4  2  0  0  0  0
  6  1  2  0  0  0  0
  6  5  1  0  0  0  0
  7  8  1  0  0  0  0
  8  1  1  0  0  0  0
  9 11  1  0  0  0  0
 10  9  2  0  0  0  0
 11 16  2  0  0  0  0
 11 12  1  0  0  0  0
 12 13  2  0  0  0  0
 13 14  1  0  0  0  0
 15 14  2  0  0  0  0
 16 15  1  0  0  0  0
 17  5  1  0  0  0  0
 18 17  1  0  0  0  0
M  END
>  <MODEL>
6

>  <REMARK>
 VINA RESULT:      -4.6      3.089      5.279
  Name = bgox31_5_ligand
  5 active torsions:
  status: ('A' for Active; 'I' for Inactive)
    1  A    between atoms: C_1  and  O_2
    2  A    between atoms: O_2  and  C_3
    3  A    between atoms: C_6  and  C_7
    4  A    between atoms: C_7  and  C_9
    5  A    between atoms: C_15  and  O_16
                            x       y       z     vdW  Elec       q    Type
                         _______ _______ _______ _____ _____    ______ ____

>  <TORSDO>
F 4

$$$$
bgox31_5_ligand
 OpenBabel10062622383D

 18 19  0  0  0  0  0  0  0  0999 V2000
    8.1000    4.3530    0.6520 C   0  0  0  0  0  0  0  0  0  0  0  0
    8.8740    3.5640    1.4440 C   0  0  0  0  0  3  0  0  0  0  0  0
    8.5520    2.1970    1.5840 C   0  0  0  0  0  3  0  0  0  0  0  0
    7.4670    1.6180    0.9580 C   0  0  0  0  0  0  0  0  0  0  0  0
    6.6670    2.4290    0.1570 C   0  0  0  0  0  0  0  0  0  0  0  0
    6.9790    3.8080    0.0070 C   0  0  0  0  0  3  0  0  0  0  0  0
    8.8900    6.4180    1.8530 C   0  0  0  0  0  1  0  0  0  0  0  0
    8.5530    5.7190    0.6210 O   0  0  0  0  0  0  0  0  0  0  0  0
    7.1850    0.2170    1.1640 C   0  0  0  0  0  0  0  0  0  0  0  0
    7.4620   -0.5830    0.2610 O   0  0  0  0  0  0  0  0  0  0  0  0
    6.4710   -0.2370    2.3990 C   0  0  0  0  0  0  0  0  0  0  0  0
    7.0920   -0.5140    3.6040 C   0  0  0  0  0  3  0  0  0  0  0  0
    6.3510   -0.9470    4.7380 C   0  0  0  0  0  3  0  0  0  0  0  0
    4.9980   -1.0970    4.7020 C   0  0  0  0  0  3  0  0  0  0  0  0
    4.3400   -0.8080    3.5300 C   0  0  0  0  0  3  0  0  0  0  0  0
    5.0890   -0.4130    2.3960 C   0  0  0  0  0  3  0  0  0  0  0  0
    5.6000    1.8920   -0.4830 O   0  0  0  0  0  0  0  0  0  0  0  0
    5.6820    1.0110   -0.9270 H   0  0  0  0  0  0  0  0  0  0  0  0
  1  2  1  0  0  0  0
  2  3  2  0  0  0  0
  4  9  1  0  0  0  0
  4  3  1  0  0  0  0
  5  4  2  0  0  0  0
  6  5  1  0  0  0  0
  6  1  2  0  0  0  0
  8  1  1  0  0  0  0
  8  7  1  0  0  0  0
  9 11  1  0  0  0  0
 10  9  2  0  0  0  0
 11 12  1  0  0  0  0
 12 13  2  0  0  0  0
 14 13  1  0  0  0  0
 15 14  2  0  0  0  0
 16 11  2  0  0  0  0
 16 15  1  0  0  0  0
 17  5  1  0  0  0  0
 18 17  1  0  0  0  0
M  END
>  <MODEL>
7

>  <REMARK>
 VINA RESULT:      -4.3      3.174      5.074
  Name = bgox31_5_ligand
  5 active torsions:
  status: ('A' for Active; 'I' for Inactive)
    1  A    between atoms: C_1  and  O_2
    2  A    between atoms: O_2  and  C_3
    3  A    between atoms: C_6  and  C_7
    4  A    between atoms: C_7  and  C_9
    5  A    between atoms: C_15  and  O_16
                            x       y       z     vdW  Elec       q    Type
                         _______ _______ _______ _____ _____    ______ ____

>  <TORSDO>
F 4

$$$$
bgox31_5_ligand
 OpenBabel10062622383D

 18 19  0  0  0  0  0  0  0  0999 V2000
    5.0430   -3.9910   10.0290 C   0  0  0  0  0  0  0  0  0  0  0  0
    4.2970   -4.0780    8.8960 C   0  0  0  0  0  3  0  0  0  0  0  0
    4.3810   -3.0500    7.9320 C   0  0  0  0  0  3  0  0  0  0  0  0
    5.1850   -1.9400    8.0930 C   0  0  0  0  0  0  0  0  0  0  0  0
    5.9390   -1.8460    9.2600 C   0  0  0  0  0  0  0  0  0  0  0  0
    5.8640   -2.8740   10.2400 C   0  0  0  0  0  3  0  0  0  0  0  0
    3.7050   -6.0050   10.7270 C   0  0  0  0  0  1  0  0  0  0  0  0
    4.8380   -5.1090   10.9130 O   0  0  0  0  0  0  0  0  0  0  0  0
    5.2060   -0.9170    7.0750 C   0  0  0  0  0  0  0  0  0  0  0  0
    4.8480    0.2280    7.3770 O   0  0  0  0  0  0  0  0  0  0  0  0
    5.5490   -1.2650    5.6600 C   0  0  0  0  0  0  0  0  0  0  0  0
    4.7970   -0.8940    4.5590 C   0  0  0  0  0  3  0  0  0  0  0  0
    5.1800   -1.2630    3.2400 C   0  0  0  0  0  3  0  0  0  0  0  0
    6.3090   -1.9840    2.9920 C   0  0  0  0  0  3  0  0  0  0  0  0
    7.0970   -2.3510    4.0570 C   0  0  0  0  0  3  0  0  0  0  0  0
    6.6890   -2.0110    5.3680 C   0  0  0  0  0  3  0  0  0  0  0  0
    6.7490   -0.7760    9.4470 O   0  0  0  0  0  0  0  0  0  0  0  0
    6.4850    0.1120    9.0980 H   0  0  0  0  0  0  0  0  0  0  0  0
  1  6  1  0  0  0  0
  1  8  1  0  0  0  0
  2  1  2  0  0  0  0
  3  4  2  0  0  0  0
  3  2  1  0  0  0  0
  4  5  1  0  0  0  0
  5 17  1  0  0  0  0
  5  6  2  0  0  0  0
  7  8  1  0  0  0  0
  9 10  2  0  0  0  0
  9  4  1  0  0  0  0
 11  9  1  0  0  0  0
 12 11  2  0  0  0  0
 13 12  1  0  0  0  0
 14 13  2  0  0  0  0
 14 15  1  0  0  0  0
 15 16  2  0  0  0  0
 16 11  1  0  0  0  0
 18 17  1  0  0  0  0
M  END
>  <MODEL>
8

>  <REMARK>
 VINA RESULT:      -4.3      2.884      6.882
  Name = bgox31_5_ligand
  5 active torsions:
  status: ('A' for Active; 'I' for Inactive)
    1  A    between atoms: C_1  and  O_2
    2  A    between atoms: O_2  and  C_3
    3  A    between atoms: C_6  and  C_7
    4  A    between atoms: C_7  and  C_9
    5  A    between atoms: C_15  and  O_16
                            x       y       z     vdW  Elec       q    Type
                         _______ _______ _______ _____ _____    ______ ____

>  <TORSDO>
F 4

$$$$
bgox31_5_ligand
 OpenBabel10062622383D

 18 19  0  0  0  0  0  0  0  0999 V2000
    8.0100    3.3010    0.6200 C   0  0  0  0  0  0  0  0  0  0  0  0
    8.3210    2.4990    1.6720 C   0  0  0  0  0  3  0  0  0  0  0  0
    7.5370    1.3520    1.9210 C   0  0  0  0  0  3  0  0  0  0  0  0
    6.4480    1.0080    1.1470 C   0  0  0  0  0  0  0  0  0  0  0  0
    6.1230    1.8390    0.0770 C   0  0  0  0  0  0  0  0  0  0  0  0
    6.9030    2.9980   -0.1860 C   0  0  0  0  0  3  0  0  0  0  0  0
    8.4120    5.7820    0.7580 C   0  0  0  0  0  1  0  0  0  0  0  0
    8.8950    4.4320    0.5070 O   0  0  0  0  0  0  0  0  0  0  0  0
    5.6790   -0.1680    1.4730 C   0  0  0  0  0  0  0  0  0  0  0  0
    4.4910   -0.0320    1.7930 O   0  0  0  0  0  0  0  0  0  0  0  0
    6.3380   -1.5120    1.5290 C   0  0  0  0  0  0  0  0  0  0  0  0
    6.8260   -2.1900    0.4250 C   0  0  0  0  0  3  0  0  0  0  0  0
    7.4380   -3.4670    0.5500 C   0  0  0  0  0  3  0  0  0  0  0  0
    7.5880   -4.0800    1.7580 C   0  0  0  0  0  3  0  0  0  0  0  0
    7.1390   -3.4280    2.8810 C   0  0  0  0  0  3  0  0  0  0  0  0
    6.4990   -2.1740    2.7430 C   0  0  0  0  0  3  0  0  0  0  0  0
    5.0670    1.5270   -0.7130 O   0  0  0  0  0  0  0  0  0  0  0  0
    4.1690    1.8900   -0.5060 H   0  0  0  0  0  0  0  0  0  0  0  0
  1  2  1  0  0  0  0
  2  3  2  0  0  0  0
  4  9  1  0  0  0  0
  4  3  1  0  0  0  0
  5  4  2  0  0  0  0
  6  5  1  0  0  0  0
  6  1  2  0  0  0  0
  8  1  1  0  0  0  0
  8  7  1  0  0  0  0
  9 11  1  0  0  0  0
  9 10  2  0  0  0  0
 11 16  1  0  0  0  0
 12 13  1  0  0  0  0
 12 11  2  0  0  0  0
 13 14  2  0  0  0  0
 14 15  1  0  0  0  0
 16 15  2  0  0  0  0
 17 18  1  0  0  0  0
 17  5  1  0  0  0  0
M  END
>  <MODEL>
9

>  <REMARK>
 VINA RESULT:      -4.3      3.807      5.577
  Name = bgox31_5_ligand
  5 active torsions:
  status: ('A' for Active; 'I' for Inactive)
    1  A    between atoms: C_1  and  O_2
    2  A    between atoms: O_2  and  C_3
    3  A    between atoms: C_6  and  C_7
    4  A    between atoms: C_7  and  C_9
    5  A    between atoms: C_15  and  O_16
                            x       y       z     vdW  Elec       q    Type
                         _______ _______ _______ _____ _____    ______ ____

>  <TORSDO>
F 4

$$$$
