orig_f12_dockpose1
     RDKit          3D

 20 20  0  0  0  0  0  0  0  0999 V2000
   -0.4530    0.2310   -1.3930 C   0  0  0  0  0  0  0  0  0  0  0  0
    0.1040    0.5470   -0.0260 C   0  0  0  0  0  0  0  0  0  0  0  0
   -0.1700    1.9680    0.3760 C   0  0  0  0  0  0  0  0  0  0  0  0
   -1.5900    2.1640    0.7940 C   0  0  0  0  0  0  0  0  0  0  0  0
   -2.4080    2.9880   -0.1760 C   0  0  2  0  0  0  0  0  0  0  0  0
   -3.3040    3.9700    0.5630 C   0  0  0  0  0  0  0  0  0  0  0  0
   -2.8100    5.4040    0.5790 C   0  0  0  0  0  0  0  0  0  0  0  0
   -3.1980    2.1160   -0.9490 O   0  0  0  0  0  0  0  0  0  0  0  0
   -3.3530    2.3610   -2.2420 C   0  0  0  0  0  0  0  0  0  0  0  0
   -3.4210    3.4830   -2.6970 O   0  0  0  0  0  0  0  0  0  0  0  0
   -3.4850    1.1330   -3.0370 C   0  0  0  0  0  0  0  0  0  0  0  0
   -3.3510    1.1960   -4.3670 C   0  0  0  0  0  0  0  0  0  0  0  0
   -3.5860    0.0340   -5.2410 C   0  0  0  0  0  0  0  0  0  0  0  0
   -2.5520   -0.6950   -5.7830 C   0  0  0  0  0  0  0  0  0  0  0  0
   -2.8090   -1.8050   -6.5710 C   0  0  0  0  0  0  0  0  0  0  0  0
   -4.1010   -2.1790   -6.8250 C   0  0  0  0  0  0  0  0  0  0  0  0
   -4.4150   -3.2730   -7.5790 O   0  0  0  0  0  0  0  0  0  0  0  0
   -5.5530   -4.0580   -7.2480 C   0  0  0  0  0  0  0  0  0  0  0  0
   -5.1470   -1.4550   -6.2820 C   0  0  0  0  0  0  0  0  0  0  0  0
   -4.8830   -0.3380   -5.4990 C   0  0  0  0  0  0  0  0  0  0  0  0
  2  1  1  0
  3  2  1  0
  4  3  1  0
  5  4  1  1
  6  5  1  0
  7  6  1  0
  8  5  1  0
  9  8  1  0
 10  9  2  0
 11  9  1  0
 12 11  2  3
 13 12  1  0
 14 13  1  0
 15 14  2  0
 16 15  1  0
 17 16  1  0
 18 17  1  0
 19 16  2  0
 20 19  1  0
 20 13  2  0
M  END
