s3_esm2_f4_ligand
 OpenBabel10092621073D

 20 20  0  0  1  0  0  0  0  0999 V2000
    2.3980    8.2860    0.2250 C   0  0  0  0  0  0  0  0  0  0  0  0
    3.4410    8.8500    0.4140 O   0  0  0  0  0  0  0  0  0  0  0  0
    2.2090    7.2860   -0.8200 C   0  0  0  0  0  3  0  0  0  0  0  0
    2.5310    7.5460   -2.0820 C   0  0  0  0  0  3  0  0  0  0  0  0
    2.5620    6.5160   -3.1440 C   0  0  0  0  0  0  0  0  0  0  0  0
    2.1070    6.7880   -4.4190 C   0  0  0  0  0  3  0  0  0  0  0  0
    2.1170    5.7970   -5.3810 C   0  0  0  0  0  3  0  0  0  0  0  0
    2.5680    4.5440   -5.0900 C   0  0  0  0  0  0  0  0  0  0  0  0
    3.0300    4.2720   -3.8180 C   0  0  0  0  0  3  0  0  0  0  0  0
    3.0230    5.2600   -2.8560 C   0  0  0  0  0  3  0  0  0  0  0  0
    2.5520    3.5980   -6.0540 O   0  0  0  0  0  0  0  0  0  0  0  0
    2.7960    3.9630   -7.4040 C   0  0  0  0  0  1  0  0  0  0  0  0
    1.2910    8.5600    0.9650 O   0  0  0  0  0  0  0  0  0  0  0  0
    0.7680    7.5590    1.8170 C   0  0  1  0  0  3  0  0  0  0  0  0
    0.5650    8.1140    3.2080 C   0  0  0  0  0  2  0  0  0  0  0  0
    1.8310    8.5000    3.9140 C   0  0  0  0  0  1  0  0  0  0  0  0
   -0.5660    7.0770    1.2640 C   0  0  0  0  0  2  0  0  0  0  0  0
   -1.4980    6.6550    2.3650 C   0  0  0  0  0  2  0  0  0  0  0  0
   -2.7720    4.5170    2.1370 C   0  0  0  0  0  1  0  0  0  0  0  0
   -2.7420    6.0120    1.8030 C   0  0  0  0  0  2  0  0  0  0  0  0
  1  2  2  0  0  0  0
  1 13  1  0  0  0  0
  3  1  1  0  0  0  0
  4  3  2  0  0  0  0
  5 10  1  0  0  0  0
  5  4  1  0  0  0  0
  6  5  2  0  0  0  0
  7  8  2  0  0  0  0
  7  6  1  0  0  0  0
  8  9  1  0  0  0  0
  9 10  2  0  0  0  0
 11  8  1  0  0  0  0
 12 11  1  0  0  0  0
 13 14  1  0  0  0  0
 14 17  1  6  0  0  0
 14 15  1  0  0  0  0
 15 16  1  0  0  0  0
 17 18  1  0  0  0  0
 20 19  1  0  0  0  0
 20 18  1  0  0  0  0
M  END
>  <MODEL>
1

>  <REMARK>
 VINA RESULT:      -4.9      0.000      0.000
  Name = s3_esm2_f4_ligand
  12 active torsions:
  status: ('A' for Active; 'I' for Inactive)
    1  A    between atoms: C_1  and  C_2
    2  A    between atoms: C_2  and  C_3
    3  A    between atoms: C_3  and  C_4
    4  A    between atoms: C_4  and  C_5
    5  A    between atoms: C_5  and  C_6
    6  A    between atoms: C_5  and  O_8
    7  A    between atoms: C_6  and  C_7
    8  A    between atoms: O_8  and  C_9
    9  A    between atoms: C_9  and  C_11
   10  A    between atoms: C_12  and  C_13
   11  A    between atoms: C_16  and  O_17
   12  A    between atoms: O_17  and  C_18
                            x       y       z     vdW  Elec       q    Type
                         _______ _______ _______ _____ _____    ______ ____

>  <TORSDO>
F 9

$$$$
s3_esm2_f4_ligand
 OpenBabel10092621073D

 20 20  0  0  1  0  0  0  0  0999 V2000
   -1.8040   -3.2950    2.5290 C   0  0  0  0  0  0  0  0  0  0  0  0
   -2.1590   -3.0360    1.4110 O   0  0  0  0  0  0  0  0  0  0  0  0
   -0.4420   -3.7020    2.8580 C   0  0  0  0  0  3  0  0  0  0  0  0
    0.5030   -2.7990    3.0930 C   0  0  0  0  0  3  0  0  0  0  0  0
    1.8380   -3.1390    3.6320 C   0  0  0  0  0  0  0  0  0  0  0  0
    2.2140   -2.7620    4.9060 C   0  0  0  0  0  3  0  0  0  0  0  0
    3.4810   -3.0650    5.3700 C   0  0  0  0  0  3  0  0  0  0  0  0
    4.3720   -3.7330    4.5840 C   0  0  0  0  0  0  0  0  0  0  0  0
    3.9960   -4.1180    3.3140 C   0  0  0  0  0  3  0  0  0  0  0  0
    2.7320   -3.8180    2.8480 C   0  0  0  0  0  3  0  0  0  0  0  0
    5.6040   -4.0020    5.0700 O   0  0  0  0  0  0  0  0  0  0  0  0
    6.1290   -3.2230    6.1330 C   0  0  0  0  0  1  0  0  0  0  0  0
   -2.6610   -3.2520    3.5820 O   0  0  0  0  0  0  0  0  0  0  0  0
   -2.1370   -3.2490    4.8970 C   0  0  1  0  0  3  0  0  0  0  0  0
   -2.3670   -1.9040    5.5450 C   0  0  0  0  0  2  0  0  0  0  0  0
   -1.1280   -1.2570    6.0900 C   0  0  0  0  0  1  0  0  0  0  0  0
   -2.8290   -4.3310    5.7150 C   0  0  0  0  0  2  0  0  0  0  0  0
   -1.9100   -5.4900    5.9830 C   0  0  0  0  0  2  0  0  0  0  0  0
    0.5110   -6.0010    5.6330 C   0  0  0  0  0  1  0  0  0  0  0  0
   -0.5000   -5.0160    6.2300 C   0  0  0  0  0  2  0  0  0  0  0  0
  1  3  1  0  0  0  0
  1 13  1  0  0  0  0
  2  1  2  0  0  0  0
  3  4  2  0  0  0  0
  4  5  1  0  0  0  0
  5  6  1  0  0  0  0
  6  7  2  0  0  0  0
  8 11  1  0  0  0  0
  8  7  1  0  0  0  0
  9  8  2  0  0  0  0
 10  9  1  0  0  0  0
 10  5  2  0  0  0  0
 11 12  1  0  0  0  0
 13 14  1  0  0  0  0
 14 15  1  1  0  0  0
 14 17  1  0  0  0  0
 15 16  1  0  0  0  0
 17 18  1  0  0  0  0
 18 20  1  0  0  0  0
 19 20  1  0  0  0  0
M  END
>  <MODEL>
2

>  <REMARK>
 VINA RESULT:      -4.8     10.870     12.407
  Name = s3_esm2_f4_ligand
  12 active torsions:
  status: ('A' for Active; 'I' for Inactive)
    1  A    between atoms: C_1  and  C_2
    2  A    between atoms: C_2  and  C_3
    3  A    between atoms: C_3  and  C_4
    4  A    between atoms: C_4  and  C_5
    5  A    between atoms: C_5  and  C_6
    6  A    between atoms: C_5  and  O_8
    7  A    between atoms: C_6  and  C_7
    8  A    between atoms: O_8  and  C_9
    9  A    between atoms: C_9  and  C_11
   10  A    between atoms: C_12  and  C_13
   11  A    between atoms: C_16  and  O_17
   12  A    between atoms: O_17  and  C_18
                            x       y       z     vdW  Elec       q    Type
                         _______ _______ _______ _____ _____    ______ ____

>  <TORSDO>
F 9

$$$$
s3_esm2_f4_ligand
 OpenBabel10092621073D

 20 20  0  0  1  0  0  0  0  0999 V2000
   -1.1390    6.9440    1.6950 C   0  0  0  0  0  0  0  0  0  0  0  0
   -1.8690    6.0250    1.4420 O   0  0  0  0  0  0  0  0  0  0  0  0
   -0.1750    7.4840    0.7410 C   0  0  0  0  0  3  0  0  0  0  0  0
    1.1300    7.3190    0.9190 C   0  0  0  0  0  3  0  0  0  0  0  0
    2.1410    7.6550   -0.1070 C   0  0  0  0  0  0  0  0  0  0  0  0
    3.0970    8.6260    0.1200 C   0  0  0  0  0  3  0  0  0  0  0  0
    4.0080    8.9420   -0.8700 C   0  0  0  0  0  3  0  0  0  0  0  0
    3.9770    8.3090   -2.0770 C   0  0  0  0  0  0  0  0  0  0  0  0
    3.0280    7.3330   -2.3030 C   0  0  0  0  0  3  0  0  0  0  0  0
    2.1180    7.0140   -1.3160 C   0  0  0  0  0  3  0  0  0  0  0  0
    4.8780    8.6520   -3.0230 O   0  0  0  0  0  0  0  0  0  0  0  0
    5.7640    7.6730   -3.5430 C   0  0  0  0  0  1  0  0  0  0  0  0
   -1.1350    7.5420    2.9150 O   0  0  0  0  0  0  0  0  0  0  0  0
   -1.5290    8.8980    3.0180 C   0  0  1  0  0  3  0  0  0  0  0  0
   -2.9040    8.9940    3.6380 C   0  0  0  0  0  2  0  0  0  0  0  0
   -3.0260   10.0230    4.7230 C   0  0  0  0  0  1  0  0  0  0  0  0
   -0.5270    9.6460    3.8870 C   0  0  0  0  0  2  0  0  0  0  0  0
    0.5270   10.3210    3.0560 C   0  0  0  0  0  2  0  0  0  0  0  0
    1.8620    8.6230    4.3110 C   0  0  0  0  0  1  0  0  0  0  0  0
    1.9100    9.9310    3.5140 C   0  0  0  0  0  2  0  0  0  0  0  0
  1 13  1  0  0  0  0
  2  1  2  0  0  0  0
  3  4  2  0  0  0  0
  3  1  1  0  0  0  0
  5  6  1  0  0  0  0
  5  4  1  0  0  0  0
  7  6  2  0  0  0  0
  8  7  1  0  0  0  0
  9  8  2  0  0  0  0
  9 10  1  0  0  0  0
 10  5  2  0  0  0  0
 11  8  1  0  0  0  0
 12 11  1  0  0  0  0
 13 14  1  0  0  0  0
 14 15  1  1  0  0  0
 14 17  1  0  0  0  0
 15 16  1  0  0  0  0
 18 20  1  0  0  0  0
 18 17  1  0  0  0  0
 20 19  1  0  0  0  0
M  END
>  <MODEL>
3

>  <REMARK>
 VINA RESULT:      -4.7      2.942      4.671
  Name = s3_esm2_f4_ligand
  12 active torsions:
  status: ('A' for Active; 'I' for Inactive)
    1  A    between atoms: C_1  and  C_2
    2  A    between atoms: C_2  and  C_3
    3  A    between atoms: C_3  and  C_4
    4  A    between atoms: C_4  and  C_5
    5  A    between atoms: C_5  and  C_6
    6  A    between atoms: C_5  and  O_8
    7  A    between atoms: C_6  and  C_7
    8  A    between atoms: O_8  and  C_9
    9  A    between atoms: C_9  and  C_11
   10  A    between atoms: C_12  and  C_13
   11  A    between atoms: C_16  and  O_17
   12  A    between atoms: O_17  and  C_18
                            x       y       z     vdW  Elec       q    Type
                         _______ _______ _______ _____ _____    ______ ____

>  <TORSDO>
F 9

$$$$
s3_esm2_f4_ligand
 OpenBabel10092621073D

 20 20  0  0  1  0  0  0  0  0999 V2000
    2.2430    7.8000    0.0780 C   0  0  0  0  0  0  0  0  0  0  0  0
    3.0310    8.6790    0.2980 O   0  0  0  0  0  0  0  0  0  0  0  0
    1.9910    7.2710   -1.2590 C   0  0  0  0  0  3  0  0  0  0  0  0
    2.9920    6.8770   -2.0380 C   0  0  0  0  0  3  0  0  0  0  0  0
    2.7960    6.1450   -3.3080 C   0  0  0  0  0  0  0  0  0  0  0  0
    3.1840    4.8270   -3.4430 C   0  0  0  0  0  3  0  0  0  0  0  0
    3.0180    4.1780   -4.6520 C   0  0  0  0  0  3  0  0  0  0  0  0
    2.4760    4.8240   -5.7240 C   0  0  0  0  0  0  0  0  0  0  0  0
    2.0790    6.1390   -5.5890 C   0  0  0  0  0  3  0  0  0  0  0  0
    2.2420    6.7880   -4.3830 C   0  0  0  0  0  3  0  0  0  0  0  0
    2.3390    4.1590   -6.8920 O   0  0  0  0  0  0  0  0  0  0  0  0
    2.8550    2.8440   -7.0190 C   0  0  0  0  0  1  0  0  0  0  0  0
    1.4970    7.2410    1.0660 O   0  0  0  0  0  0  0  0  0  0  0  0
    0.4630    8.0010    1.6630 C   0  0  1  0  0  3  0  0  0  0  0  0
   -0.8840    7.5190    1.1770 C   0  0  0  0  0  2  0  0  0  0  0  0
   -1.5640    6.5470    2.0950 C   0  0  0  0  0  1  0  0  0  0  0  0
    0.5410    7.8530    3.1760 C   0  0  0  0  0  2  0  0  0  0  0  0
    1.6760    8.6530    3.7510 C   0  0  0  0  0  2  0  0  0  0  0  0
    2.0320   10.9940    2.9530 C   0  0  0  0  0  1  0  0  0  0  0  0
    1.2780   10.0960    3.9390 C   0  0  0  0  0  2  0  0  0  0  0  0
  1  2  2  0  0  0  0
  1 13  1  0  0  0  0
  3  1  1  0  0  0  0
  4  3  2  0  0  0  0
  5  4  1  0  0  0  0
  6  5  1  0  0  0  0
  7  6  2  0  0  0  0
  8  9  2  0  0  0  0
  8  7  1  0  0  0  0
  9 10  1  0  0  0  0
 10  5  2  0  0  0  0
 11  8  1  0  0  0  0
 12 11  1  0  0  0  0
 13 14  1  0  0  0  0
 14 15  1  6  0  0  0
 14 17  1  0  0  0  0
 15 16  1  0  0  0  0
 17 18  1  0  0  0  0
 18 20  1  0  0  0  0
 19 20  1  0  0  0  0
M  END
>  <MODEL>
4

>  <REMARK>
 VINA RESULT:      -4.7      0.960      2.993
  Name = s3_esm2_f4_ligand
  12 active torsions:
  status: ('A' for Active; 'I' for Inactive)
    1  A    between atoms: C_1  and  C_2
    2  A    between atoms: C_2  and  C_3
    3  A    between atoms: C_3  and  C_4
    4  A    between atoms: C_4  and  C_5
    5  A    between atoms: C_5  and  C_6
    6  A    between atoms: C_5  and  O_8
    7  A    between atoms: C_6  and  C_7
    8  A    between atoms: O_8  and  C_9
    9  A    between atoms: C_9  and  C_11
   10  A    between atoms: C_12  and  C_13
   11  A    between atoms: C_16  and  O_17
   12  A    between atoms: O_17  and  C_18
                            x       y       z     vdW  Elec       q    Type
                         _______ _______ _______ _____ _____    ______ ____

>  <TORSDO>
F 9

$$$$
s3_esm2_f4_ligand
 OpenBabel10092621073D

 20 20  0  0  1  0  0  0  0  0999 V2000
    0.4780    7.7810   -0.1860 C   0  0  0  0  0  0  0  0  0  0  0  0
   -0.2020    8.1650   -1.0980 O   0  0  0  0  0  0  0  0  0  0  0  0
    1.9340    7.8820   -0.1790 C   0  0  0  0  0  3  0  0  0  0  0  0
    2.5370    9.0630   -0.1090 C   0  0  0  0  0  3  0  0  0  0  0  0
    3.9900    9.2240    0.1120 C   0  0  0  0  0  0  0  0  0  0  0  0
    4.4820    9.7440    1.2930 C   0  0  0  0  0  3  0  0  0  0  0  0
    5.8440    9.9140    1.4580 C   0  0  0  0  0  3  0  0  0  0  0  0
    6.7160    9.5760    0.4660 C   0  0  0  0  0  0  0  0  0  0  0  0
    6.2270    9.0480   -0.7120 C   0  0  0  0  0  3  0  0  0  0  0  0
    4.8690    8.8770   -0.8790 C   0  0  0  0  0  3  0  0  0  0  0  0
    8.0390    9.7660    0.6610 O   0  0  0  0  0  0  0  0  0  0  0  0
    8.5560    9.8320    1.9810 C   0  0  0  0  0  1  0  0  0  0  0  0
   -0.0620    7.1900    0.9110 O   0  0  0  0  0  0  0  0  0  0  0  0
   -0.9390    7.9370    1.7340 C   0  0  1  0  0  3  0  0  0  0  0  0
   -1.7570    7.0080    2.6010 C   0  0  0  0  0  2  0  0  0  0  0  0
   -2.2030    5.7510    1.9160 C   0  0  0  0  0  1  0  0  0  0  0  0
   -0.1230    8.8700    2.6190 C   0  0  0  0  0  2  0  0  0  0  0  0
    0.8710    8.1100    3.4520 C   0  0  0  0  0  2  0  0  0  0  0  0
    1.6810   10.4720    3.5560 C   0  0  0  0  0  1  0  0  0  0  0  0
    1.9740    9.0160    3.9360 C   0  0  0  0  0  2  0  0  0  0  0  0
  1  3  1  0  0  0  0
  1 13  1  0  0  0  0
  2  1  2  0  0  0  0
  3  4  2  0  0  0  0
  4  5  1  0  0  0  0
  5  6  1  0  0  0  0
  6  7  2  0  0  0  0
  8 11  1  0  0  0  0
  8  7  1  0  0  0  0
  9  8  2  0  0  0  0
 10  9  1  0  0  0  0
 10  5  2  0  0  0  0
 11 12  1  0  0  0  0
 13 14  1  0  0  0  0
 14 15  1  1  0  0  0
 14 17  1  0  0  0  0
 16 15  1  0  0  0  0
 17 18  1  0  0  0  0
 18 20  1  0  0  0  0
 19 20  1  0  0  0  0
M  END
>  <MODEL>
5

>  <REMARK>
 VINA RESULT:      -4.6      3.827      6.025
  Name = s3_esm2_f4_ligand
  12 active torsions:
  status: ('A' for Active; 'I' for Inactive)
    1  A    between atoms: C_1  and  C_2
    2  A    between atoms: C_2  and  C_3
    3  A    between atoms: C_3  and  C_4
    4  A    between atoms: C_4  and  C_5
    5  A    between atoms: C_5  and  C_6
    6  A    between atoms: C_5  and  O_8
    7  A    between atoms: C_6  and  C_7
    8  A    between atoms: O_8  and  C_9
    9  A    between atoms: C_9  and  C_11
   10  A    between atoms: C_12  and  C_13
   11  A    between atoms: C_16  and  O_17
   12  A    between atoms: O_17  and  C_18
                            x       y       z     vdW  Elec       q    Type
                         _______ _______ _______ _____ _____    ______ ____

>  <TORSDO>
F 9

$$$$
s3_esm2_f4_ligand
 OpenBabel10092621073D

 20 20  0  0  1  0  0  0  0  0999 V2000
   -0.7710   -5.2930    2.6430 C   0  0  0  0  0  0  0  0  0  0  0  0
   -0.9540   -5.8530    1.5970 O   0  0  0  0  0  0  0  0  0  0  0  0
    0.5390   -5.1950    3.2780 C   0  0  0  0  0  3  0  0  0  0  0  0
    1.3280   -4.1500    3.0590 C   0  0  0  0  0  3  0  0  0  0  0  0
    2.5660   -3.8890    3.8260 C   0  0  0  0  0  0  0  0  0  0  0  0
    3.7620   -4.4860    3.4800 C   0  0  0  0  0  3  0  0  0  0  0  0
    4.8960   -4.2500    4.2350 C   0  0  0  0  0  3  0  0  0  0  0  0
    4.8510   -3.4330    5.3260 C   0  0  0  0  0  0  0  0  0  0  0  0
    3.6590   -2.8290    5.6680 C   0  0  0  0  0  3  0  0  0  0  0  0
    2.5260   -3.0610    4.9150 C   0  0  0  0  0  3  0  0  0  0  0  0
    5.9770   -3.2350    6.0450 O   0  0  0  0  0  0  0  0  0  0  0  0
    5.9940   -2.2610    7.0760 C   0  0  0  0  0  1  0  0  0  0  0  0
   -1.7900   -4.7220    3.3380 O   0  0  0  0  0  0  0  0  0  0  0  0
   -2.1340   -3.3750    3.0740 C   0  0  1  0  0  3  0  0  0  0  0  0
   -3.3840   -3.3130    2.2280 C   0  0  0  0  0  2  0  0  0  0  0  0
   -3.1320   -3.1900    0.7540 C   0  0  0  0  0  1  0  0  0  0  0  0
   -2.3760   -2.6520    4.3920 C   0  0  0  0  0  2  0  0  0  0  0  0
   -1.9660   -3.4950    5.5660 C   0  0  0  0  0  2  0  0  0  0  0  0
   -0.6630   -1.3960    5.9450 C   0  0  0  0  0  1  0  0  0  0  0  0
   -0.7860   -2.8850    6.2820 C   0  0  0  0  0  2  0  0  0  0  0  0
  1  3  1  0  0  0  0
  1 13  1  0  0  0  0
  2  1  2  0  0  0  0
  4  3  2  0  0  0  0
  4  5  1  0  0  0  0
  5 10  1  0  0  0  0
  6  5  2  0  0  0  0
  6  7  1  0  0  0  0
  7  8  2  0  0  0  0
  8  9  1  0  0  0  0
  8 11  1  0  0  0  0
 10  9  2  0  0  0  0
 11 12  1  0  0  0  0
 14 15  1  6  0  0  0
 14 13  1  0  0  0  0
 14 17  1  0  0  0  0
 16 15  1  0  0  0  0
 17 18  1  0  0  0  0
 18 20  1  0  0  0  0
 19 20  1  0  0  0  0
M  END
>  <MODEL>
6

>  <REMARK>
 VINA RESULT:      -4.6     11.221     12.760
  Name = s3_esm2_f4_ligand
  12 active torsions:
  status: ('A' for Active; 'I' for Inactive)
    1  A    between atoms: C_1  and  C_2
    2  A    between atoms: C_2  and  C_3
    3  A    between atoms: C_3  and  C_4
    4  A    between atoms: C_4  and  C_5
    5  A    between atoms: C_5  and  C_6
    6  A    between atoms: C_5  and  O_8
    7  A    between atoms: C_6  and  C_7
    8  A    between atoms: O_8  and  C_9
    9  A    between atoms: C_9  and  C_11
   10  A    between atoms: C_12  and  C_13
   11  A    between atoms: C_16  and  O_17
   12  A    between atoms: O_17  and  C_18
                            x       y       z     vdW  Elec       q    Type
                         _______ _______ _______ _____ _____    ______ ____

>  <TORSDO>
F 9

$$$$
s3_esm2_f4_ligand
 OpenBabel10092621073D

 20 20  0  0  1  0  0  0  0  0999 V2000
    2.4800    8.8900    0.9650 C   0  0  0  0  0  0  0  0  0  0  0  0
    3.4170    9.6090    1.1820 O   0  0  0  0  0  0  0  0  0  0  0  0
    2.4680    7.8950   -0.1030 C   0  0  0  0  0  3  0  0  0  0  0  0
    2.2510    8.2490   -1.3640 C   0  0  0  0  0  3  0  0  0  0  0  0
    2.4320    7.3320   -2.5100 C   0  0  0  0  0  0  0  0  0  0  0  0
    2.0670    7.7020   -3.7890 C   0  0  0  0  0  3  0  0  0  0  0  0
    2.2170    6.8110   -4.8350 C   0  0  0  0  0  3  0  0  0  0  0  0
    2.7200    5.5610   -4.6230 C   0  0  0  0  0  0  0  0  0  0  0  0
    3.0920    5.1920   -3.3460 C   0  0  0  0  0  3  0  0  0  0  0  0
    2.9450    6.0800   -2.3010 C   0  0  0  0  0  3  0  0  0  0  0  0
    2.8410    4.7150   -5.6680 O   0  0  0  0  0  0  0  0  0  0  0  0
    2.5210    3.3420   -5.5060 C   0  0  0  0  0  1  0  0  0  0  0  0
    1.3350    8.9670    1.6910 O   0  0  0  0  0  0  0  0  0  0  0  0
    1.0490    7.9530    2.6370 C   0  0  1  0  0  3  0  0  0  0  0  0
    1.4960    8.3860    4.0140 C   0  0  0  0  0  2  0  0  0  0  0  0
    1.0500    9.7630    4.4080 C   0  0  0  0  0  1  0  0  0  0  0  0
   -0.4500    7.6870    2.6490 C   0  0  0  0  0  2  0  0  0  0  0  0
   -0.8640    6.8180    1.4960 C   0  0  0  0  0  2  0  0  0  0  0  0
   -1.2750    8.3470   -0.4370 C   0  0  0  0  0  1  0  0  0  0  0  0
   -1.9210    7.4960    0.6610 C   0  0  0  0  0  2  0  0  0  0  0  0
  1  2  2  0  0  0  0
  1 13  1  0  0  0  0
  3  1  1  0  0  0  0
  4  3  2  0  0  0  0
  5 10  1  0  0  0  0
  5  4  1  0  0  0  0
  6  5  2  0  0  0  0
  7  8  2  0  0  0  0
  7  6  1  0  0  0  0
  8  9  1  0  0  0  0
  9 10  2  0  0  0  0
 11 12  1  0  0  0  0
 11  8  1  0  0  0  0
 13 14  1  0  0  0  0
 14 17  1  1  0  0  0
 14 15  1  0  0  0  0
 15 16  1  0  0  0  0
 18 17  1  0  0  0  0
 19 20  1  0  0  0  0
 20 18  1  0  0  0  0
M  END
>  <MODEL>
7

>  <REMARK>
 VINA RESULT:      -4.6      1.230      1.636
  Name = s3_esm2_f4_ligand
  12 active torsions:
  status: ('A' for Active; 'I' for Inactive)
    1  A    between atoms: C_1  and  C_2
    2  A    between atoms: C_2  and  C_3
    3  A    between atoms: C_3  and  C_4
    4  A    between atoms: C_4  and  C_5
    5  A    between atoms: C_5  and  C_6
    6  A    between atoms: C_5  and  O_8
    7  A    between atoms: C_6  and  C_7
    8  A    between atoms: O_8  and  C_9
    9  A    between atoms: C_9  and  C_11
   10  A    between atoms: C_12  and  C_13
   11  A    between atoms: C_16  and  O_17
   12  A    between atoms: O_17  and  C_18
                            x       y       z     vdW  Elec       q    Type
                         _______ _______ _______ _____ _____    ______ ____

>  <TORSDO>
F 9

$$$$
s3_esm2_f4_ligand
 OpenBabel10092621073D

 20 20  0  0  1  0  0  0  0  0999 V2000
    4.3000    9.7100    0.3320 C   0  0  0  0  0  0  0  0  0  0  0  0
    5.0990   10.5300   -0.0300 O   0  0  0  0  0  0  0  0  0  0  0  0
    3.6260    9.7680    1.6250 C   0  0  0  0  0  3  0  0  0  0  0  0
    2.6840   10.6730    1.8650 C   0  0  0  0  0  3  0  0  0  0  0  0
    1.8240   10.6530    3.0680 C   0  0  0  0  0  0  0  0  0  0  0  0
    1.1270   11.7750    3.4690 C   0  0  0  0  0  3  0  0  0  0  0  0
    0.3570   11.7370    4.6170 C   0  0  0  0  0  3  0  0  0  0  0  0
    0.2760   10.6010    5.3660 C   0  0  0  0  0  0  0  0  0  0  0  0
    0.9650    9.4750    4.9620 C   0  0  0  0  0  3  0  0  0  0  0  0
    1.7330    9.5100    3.8170 C   0  0  0  0  0  3  0  0  0  0  0  0
   -0.4790   10.6050    6.4860 O   0  0  0  0  0  0  0  0  0  0  0  0
   -1.7940   11.1370    6.4500 C   0  0  0  0  0  1  0  0  0  0  0  0
    3.9770    8.6370   -0.4360 O   0  0  0  0  0  0  0  0  0  0  0  0
    2.6400    8.4820   -0.8760 C   0  0  1  0  0  3  0  0  0  0  0  0
    2.5720    8.5880   -2.3820 C   0  0  0  0  0  2  0  0  0  0  0  0
    2.4410    7.2740   -3.0920 C   0  0  0  0  0  1  0  0  0  0  0  0
    2.1230    7.1180   -0.4400 C   0  0  0  0  0  2  0  0  0  0  0  0
    1.3240    7.2120    0.8300 C   0  0  0  0  0  2  0  0  0  0  0  0
   -0.6480    8.7000    1.2060 C   0  0  0  0  0  1  0  0  0  0  0  0
   -0.1400    7.4210    0.5330 C   0  0  0  0  0  2  0  0  0  0  0  0
  1  3  1  0  0  0  0
  2  1  2  0  0  0  0
  3  4  2  0  0  0  0
  4  5  1  0  0  0  0
  5  6  2  0  0  0  0
  5 10  1  0  0  0  0
  6  7  1  0  0  0  0
  7  8  2  0  0  0  0
  8 11  1  0  0  0  0
  9  8  1  0  0  0  0
 10  9  2  0  0  0  0
 12 11  1  0  0  0  0
 13  1  1  0  0  0  0
 14 15  1  6  0  0  0
 14 17  1  0  0  0  0
 14 13  1  0  0  0  0
 16 15  1  0  0  0  0
 17 18  1  0  0  0  0
 20 18  1  0  0  0  0
 20 19  1  0  0  0  0
M  END
>  <MODEL>
8

>  <REMARK>
 VINA RESULT:      -4.5      2.988      8.059
  Name = s3_esm2_f4_ligand
  12 active torsions:
  status: ('A' for Active; 'I' for Inactive)
    1  A    between atoms: C_1  and  C_2
    2  A    between atoms: C_2  and  C_3
    3  A    between atoms: C_3  and  C_4
    4  A    between atoms: C_4  and  C_5
    5  A    between atoms: C_5  and  C_6
    6  A    between atoms: C_5  and  O_8
    7  A    between atoms: C_6  and  C_7
    8  A    between atoms: O_8  and  C_9
    9  A    between atoms: C_9  and  C_11
   10  A    between atoms: C_12  and  C_13
   11  A    between atoms: C_16  and  O_17
   12  A    between atoms: O_17  and  C_18
                            x       y       z     vdW  Elec       q    Type
                         _______ _______ _______ _____ _____    ______ ____

>  <TORSDO>
F 9

$$$$
s3_esm2_f4_ligand
 OpenBabel10092621073D

 20 20  0  0  1  0  0  0  0  0999 V2000
    5.2840   -4.6490    2.5050 C   0  0  0  0  0  0  0  0  0  0  0  0
    6.3710   -4.8710    2.9650 O   0  0  0  0  0  0  0  0  0  0  0  0
    4.1670   -4.1520    3.3010 C   0  0  0  0  0  3  0  0  0  0  0  0
    3.1520   -3.5130    2.7310 C   0  0  0  0  0  3  0  0  0  0  0  0
    1.9010   -3.1720    3.4430 C   0  0  0  0  0  0  0  0  0  0  0  0
    1.9240   -2.5360    4.6680 C   0  0  0  0  0  3  0  0  0  0  0  0
    0.7400   -2.2600    5.3250 C   0  0  0  0  0  3  0  0  0  0  0  0
   -0.4600   -2.6110    4.7820 C   0  0  0  0  0  0  0  0  0  0  0  0
   -0.4860   -3.2400    3.5530 C   0  0  0  0  0  3  0  0  0  0  0  0
    0.6940   -3.5150    2.8940 C   0  0  0  0  0  3  0  0  0  0  0  0
   -1.5950   -2.3330    5.4590 O   0  0  0  0  0  0  0  0  0  0  0  0
   -2.8550   -2.6120    4.8690 C   0  0  0  0  0  1  0  0  0  0  0  0
    5.0020   -4.8710    1.1940 O   0  0  0  0  0  0  0  0  0  0  0  0
    5.7620   -4.2040    0.2040 C   0  0  1  0  0  3  0  0  0  0  0  0
    6.3920   -5.2090   -0.7320 C   0  0  0  0  0  2  0  0  0  0  0  0
    5.9340   -6.6220   -0.5270 C   0  0  0  0  0  1  0  0  0  0  0  0
    4.8500   -3.2760   -0.5870 C   0  0  0  0  0  2  0  0  0  0  0  0
    5.1840   -3.2930   -2.0530 C   0  0  0  0  0  2  0  0  0  0  0  0
    4.0620   -4.8020   -3.6980 C   0  0  0  0  0  1  0  0  0  0  0  0
    3.9450   -3.5080   -2.8860 C   0  0  0  0  0  2  0  0  0  0  0  0
  1  2  2  0  0  0  0
  1  3  1  0  0  0  0
  4  3  2  0  0  0  0
  4  5  1  0  0  0  0
  5  6  1  0  0  0  0
  6  7  2  0  0  0  0
  8  7  1  0  0  0  0
  8 11  1  0  0  0  0
  9  8  2  0  0  0  0
 10  5  2  0  0  0  0
 10  9  1  0  0  0  0
 12 11  1  0  0  0  0
 13  1  1  0  0  0  0
 14 15  1  6  0  0  0
 14 13  1  0  0  0  0
 15 16  1  0  0  0  0
 17 14  1  0  0  0  0
 18 17  1  0  0  0  0
 19 20  1  0  0  0  0
 20 18  1  0  0  0  0
M  END
>  <MODEL>
9

>  <REMARK>
 VINA RESULT:      -4.4     10.279     13.149
  Name = s3_esm2_f4_ligand
  12 active torsions:
  status: ('A' for Active; 'I' for Inactive)
    1  A    between atoms: C_1  and  C_2
    2  A    between atoms: C_2  and  C_3
    3  A    between atoms: C_3  and  C_4
    4  A    between atoms: C_4  and  C_5
    5  A    between atoms: C_5  and  C_6
    6  A    between atoms: C_5  and  O_8
    7  A    between atoms: C_6  and  C_7
    8  A    between atoms: O_8  and  C_9
    9  A    between atoms: C_9  and  C_11
   10  A    between atoms: C_12  and  C_13
   11  A    between atoms: C_16  and  O_17
   12  A    between atoms: O_17  and  C_18
                            x       y       z     vdW  Elec       q    Type
                         _______ _______ _______ _____ _____    ______ ____

>  <TORSDO>
F 9

$$$$
