bg33_4_pose0_reference


 20 20  0  0  0  0  0  0  0  0999 V2000
   -0.3360   -2.1230    6.0250 C   0  0  0  0  0  0  0  0  0  0  0  0
    0.0790   -3.0680    6.7620 O   0  0  0  0  0  0  0  0  0  0  0  0
    0.5190   -1.4180    5.0570 C   0  0  0  0  0  0  0  0  0  0  0  0
   -0.0080   -0.2450    4.4210 C   0  0  0  0  0  0  0  0  0  0  0  0
    0.7770    0.4720    3.3340 C   0  0  0  0  0  0  0  0  0  0  0  0
    2.1550    0.5010    3.3080 C   0  0  0  0  0  0  0  0  0  0  0  0
    2.8690    1.1840    2.2640 C   0  0  0  0  0  0  0  0  0  0  0  0
    2.2020    1.8350    1.2110 C   0  0  0  0  0  0  0  0  0  0  0  0
    0.8110    1.7760    1.2520 C   0  0  0  0  0  0  0  0  0  0  0  0
    0.1200    1.1040    2.2690 C   0  0  0  0  0  0  0  0  0  0  0  0
    2.8330    2.4570    0.1520 O   0  0  0  0  0  0  0  0  0  0  0  0
    4.2800    2.4020    0.0770 C   0  0  0  0  0  0  0  0  0  0  0  0
   -1.7600   -1.7780    5.9970 O   0  0  0  0  0  0  0  0  0  0  0  0
   -2.5900   -2.2270    7.0140 C   0  0  0  0  0  0  0  0  0  0  0  0
   -3.1520   -3.5370    6.3890 C   0  0  0  0  0  0  0  0  0  0  0  0
   -3.8100   -4.4560    7.4690 C   0  0  0  0  0  0  0  0  0  0  0  0
   -3.6870   -1.1060    7.3240 C   0  0  0  0  0  0  0  0  0  0  0  0
   -3.1360    0.2640    7.0220 C   0  0  0  0  0  0  0  0  0  0  0  0
   -3.5680    2.7550    7.2090 C   0  0  0  0  0  0  0  0  0  0  0  0
   -3.9670    1.3760    7.6580 C   0  0  0  0  0  0  0  0  0  0  0  0
 20 19  1  0
 18 20  1  0
 17 18  1  0
 14 17  1  0
 15 14  1  0
 16 15  1  0
 13 14  1  0
  1 13  1  0
  2  1  2  0
  3  1  1  0
  4  3  2  0
  5  4  1  0
  6  5  1  0
  7  6  2  0
  8  7  1  0
 11  8  1  0
 12 11  1  0
  9  8  2  0
 10  9  1  0
 10  5  2  0
M  END
> <structure>
bg33_4

> <pose>
0

> <is_reference>
1

> <rmsd_to_reference_A>
0.000

> <vina_score>


> <minimizedAffinity>
-3.20055

> <CNNscore>
0.5628445148

> <CNNaffinity>
5.0835938454

> <CNN_VS>
2.8612728119

> <CNNaffinity_variance>
0.1039672494

$$$$
bg33_4_pose1


 20 20  0  0  0  0  0  0  0  0999 V2000
   -0.9550   -4.0740    6.2780 C   0  0  0  0  0  0  0  0  0  0  0  0
   -0.1390   -4.4410    7.1770 O   0  0  0  0  0  0  0  0  0  0  0  0
   -0.5830   -3.1940    5.1590 C   0  0  0  0  0  0  0  0  0  0  0  0
   -0.2950   -1.8190    5.4500 C   0  0  0  0  0  0  0  0  0  0  0  0
   -0.0080   -0.8300    4.3320 C   0  0  0  0  0  0  0  0  0  0  0  0
    0.0250    0.5330    4.5360 C   0  0  0  0  0  0  0  0  0  0  0  0
    0.3040    1.4440    3.4590 C   0  0  0  0  0  0  0  0  0  0  0  0
    0.5760    0.9920    2.1550 C   0  0  0  0  0  0  0  0  0  0  0  0
    0.5530   -0.3900    1.9810 C   0  0  0  0  0  0  0  0  0  0  0  0
    0.2860   -1.2730    3.0350 C   0  0  0  0  0  0  0  0  0  0  0  0
    0.9070    1.8130    1.0960 O   0  0  0  0  0  0  0  0  0  0  0  0
    2.3080    2.0020    0.7740 C   0  0  0  0  0  0  0  0  0  0  0  0
   -2.3050   -4.6430    6.2290 O   0  0  0  0  0  0  0  0  0  0  0  0
   -3.3130   -3.9500    5.5750 C   0  0  0  0  0  0  0  0  0  0  0  0
   -4.1400   -3.4130    6.7790 C   0  0  0  0  0  0  0  0  0  0  0  0
   -3.8510   -1.9000    7.0490 C   0  0  0  0  0  0  0  0  0  0  0  0
   -4.1000   -4.9580    4.6150 C   0  0  0  0  0  0  0  0  0  0  0  0
   -3.3490   -5.1430    3.3210 C   0  0  0  0  0  0  0  0  0  0  0  0
   -4.7560   -6.2920    1.5530 C   0  0  0  0  0  0  0  0  0  0  0  0
   -4.2520   -4.9850    2.1000 C   0  0  0  0  0  0  0  0  0  0  0  0
 20 19  1  0
 18 20  1  0
 17 18  1  0
 14 17  1  0
 15 14  1  0
 16 15  1  0
 13 14  1  0
  1 13  1  0
  2  1  2  0
  3  1  1  0
  4  3  2  0
  5  4  1  0
  6  5  1  0
  7  6  2  0
  8  7  1  0
 11  8  1  0
 12 11  1  0
  9  8  2  0
 10  9  1  0
 10  5  2  0
M  END
> <structure>
bg33_4

> <pose>
1

> <is_reference>
0

> <rmsd_to_reference_A>
4.067

> <vina_score>
-4.7

> <minimizedAffinity>
-4.72251

> <CNNscore>
0.3146408498

> <CNNaffinity>
4.5049986839

> <CNN_VS>
1.4174566269

> <CNNaffinity_variance>
0.0626810417

$$$$
bg33_4_pose2


 20 20  0  0  0  0  0  0  0  0999 V2000
    2.4170    2.8540    0.4620 C   0  0  0  0  0  0  0  0  0  0  0  0
    2.3630    4.1160    0.3520 O   0  0  0  0  0  0  0  0  0  0  0  0
    3.6120    2.0630    0.1280 C   0  0  0  0  0  0  0  0  0  0  0  0
    4.8790    2.5120    0.6300 C   0  0  0  0  0  0  0  0  0  0  0  0
    6.1670    1.8060    0.2380 C   0  0  0  0  0  0  0  0  0  0  0  0
    7.4130    2.2910    0.5740 C   0  0  0  0  0  0  0  0  0  0  0  0
    8.6130    1.5990    0.1920 C   0  0  0  0  0  0  0  0  0  0  0  0
    8.5770    0.3870   -0.5210 C   0  0  0  0  0  0  0  0  0  0  0  0
    7.3060   -0.0900   -0.8330 C   0  0  0  0  0  0  0  0  0  0  0  0
    6.1390    0.5870   -0.4530 C   0  0  0  0  0  0  0  0  0  0  0  0
    9.6920   -0.3510   -0.8650 O   0  0  0  0  0  0  0  0  0  0  0  0
   10.1820   -1.3450    0.0710 C   0  0  0  0  0  0  0  0  0  0  0  0
    1.3120    2.1180    1.0830 O   0  0  0  0  0  0  0  0  0  0  0  0
    1.5640    1.3080    2.1800 C   0  0  0  0  0  0  0  0  0  0  0  0
    0.1740    0.6390    2.3870 C   0  0  0  0  0  0  0  0  0  0  0  0
   -0.2820    0.7060    3.8810 C   0  0  0  0  0  0  0  0  0  0  0  0
    2.0590    2.2190    3.3980 C   0  0  0  0  0  0  0  0  0  0  0  0
    3.4240    1.7780    3.8610 C   0  0  0  0  0  0  0  0  0  0  0  0
    5.1750    0.0080    3.3850 C   0  0  0  0  0  0  0  0  0  0  0  0
    3.7090    0.3180    3.5160 C   0  0  0  0  0  0  0  0  0  0  0  0
 20 19  1  0
 18 20  1  0
 17 18  1  0
 14 17  1  0
 15 14  1  0
 16 15  1  0
 13 14  1  0
  1 13  1  0
  2  1  2  0
  3  1  1  0
  4  3  2  0
  5  4  1  0
  6  5  1  0
  7  6  2  0
  8  7  1  0
 11  8  1  0
 12 11  1  0
  9  8  2  0
 10  9  1  0
 10  5  2  0
M  END
> <structure>
bg33_4

> <pose>
2

> <is_reference>
0

> <rmsd_to_reference_A>
7.425

> <vina_score>
-4.5

> <minimizedAffinity>
-4.08258

> <CNNscore>
0.2341683805

> <CNNaffinity>
4.0719995499

> <CNN_VS>
0.9535335302

> <CNNaffinity_variance>
0.2419013232

$$$$
bg33_4_pose3


 20 20  0  0  0  0  0  0  0  0999 V2000
    2.6480    2.0500    0.2080 C   0  0  0  0  0  0  0  0  0  0  0  0
    3.0000    1.3870   -0.8140 O   0  0  0  0  0  0  0  0  0  0  0  0
    2.2170    1.4250    1.4690 C   0  0  0  0  0  0  0  0  0  0  0  0
    0.9000    0.8610    1.5260 C   0  0  0  0  0  0  0  0  0  0  0  0
    0.3490    0.2940    2.8250 C   0  0  0  0  0  0  0  0  0  0  0  0
    0.5320   -1.0200    3.1990 C   0  0  0  0  0  0  0  0  0  0  0  0
    0.0030   -1.5250    4.4370 C   0  0  0  0  0  0  0  0  0  0  0  0
   -0.7040   -0.7040    5.3330 C   0  0  0  0  0  0  0  0  0  0  0  0
   -0.8600    0.6230    4.9380 C   0  0  0  0  0  0  0  0  0  0  0  0
   -0.3380    1.1120    3.7340 C   0  0  0  0  0  0  0  0  0  0  0  0
   -1.1850   -1.1180    6.5590 O   0  0  0  0  0  0  0  0  0  0  0  0
   -2.6190   -1.1320    6.7740 C   0  0  0  0  0  0  0  0  0  0  0  0
    2.7980    3.5080    0.2310 O   0  0  0  0  0  0  0  0  0  0  0  0
    3.8430    4.0740    0.9470 C   0  0  0  0  0  0  0  0  0  0  0  0
    3.3060    5.5170    1.1760 C   0  0  0  0  0  0  0  0  0  0  0  0
    1.8100    5.5100    1.6310 C   0  0  0  0  0  0  0  0  0  0  0  0
    5.1800    3.9860    0.0750 C   0  0  0  0  0  0  0  0  0  0  0  0
    6.2240    3.1730    0.7970 C   0  0  0  0  0  0  0  0  0  0  0  0
    5.9300    0.6840    1.1800 C   0  0  0  0  0  0  0  0  0  0  0  0
    6.3600    1.7640    0.2250 C   0  0  0  0  0  0  0  0  0  0  0  0
 20 19  1  0
 18 20  1  0
 17 18  1  0
 14 17  1  0
 15 14  1  0
 16 15  1  0
 13 14  1  0
  1 13  1  0
  2  1  2  0
  3  1  1  0
  4  3  2  0
  5  4  1  0
  6  5  1  0
  7  6  2  0
  8  7  1  0
 11  8  1  0
 12 11  1  0
  9  8  2  0
 10  9  1  0
 10  5  2  0
M  END
> <structure>
bg33_4

> <pose>
3

> <is_reference>
0

> <rmsd_to_reference_A>
8.756

> <vina_score>
-4.4

> <minimizedAffinity>
-4.41679

> <CNNscore>
0.2676733434

> <CNNaffinity>
4.0229964256

> <CNN_VS>
1.0768488646

> <CNNaffinity_variance>
0.2452698201

$$$$
bg33_4_pose4


 20 20  0  0  0  0  0  0  0  0999 V2000
    2.2440    5.2230    1.4500 C   0  0  0  0  0  0  0  0  0  0  0  0
    1.4570    6.2180    1.4500 O   0  0  0  0  0  0  0  0  0  0  0  0
    1.9870    3.9900    2.2100 C   0  0  0  0  0  0  0  0  0  0  0  0
    1.6050    2.8160    1.4800 C   0  0  0  0  0  0  0  0  0  0  0  0
    1.2200    1.5360    2.2060 C   0  0  0  0  0  0  0  0  0  0  0  0
    1.3150    1.4010    3.5740 C   0  0  0  0  0  0  0  0  0  0  0  0
    0.9400    0.1790    4.2320 C   0  0  0  0  0  0  0  0  0  0  0  0
    0.4400   -0.9250    3.5200 C   0  0  0  0  0  0  0  0  0  0  0  0
    0.3380   -0.7560    2.1410 C   0  0  0  0  0  0  0  0  0  0  0  0
    0.7000    0.4390    1.5050 C   0  0  0  0  0  0  0  0  0  0  0  0
    0.0110   -2.1020    4.1020 O   0  0  0  0  0  0  0  0  0  0  0  0
   -0.6770   -2.0350    5.3770 C   0  0  0  0  0  0  0  0  0  0  0  0
    3.4050    5.1980    0.5560 O   0  0  0  0  0  0  0  0  0  0  0  0
    4.6820    5.2080    1.0960 C   0  0  0  0  0  0  0  0  0  0  0  0
    5.0850    6.6970    0.8910 C   0  0  0  0  0  0  0  0  0  0  0  0
    5.8650    6.9060   -0.4470 C   0  0  0  0  0  0  0  0  0  0  0  0
    5.5890    4.1530    0.3090 C   0  0  0  0  0  0  0  0  0  0  0  0
    4.7420    3.0190   -0.2110 C   0  0  0  0  0  0  0  0  0  0  0  0
    5.9440    0.7970   -0.4250 C   0  0  0  0  0  0  0  0  0  0  0  0
    5.0950    1.6850    0.4430 C   0  0  0  0  0  0  0  0  0  0  0  0
 20 19  1  0
 18 20  1  0
 17 18  1  0
 14 17  1  0
 15 14  1  0
 16 15  1  0
 13 14  1  0
  1 13  1  0
  2  1  2  0
  3  1  1  0
  4  3  2  0
  5  4  1  0
  6  5  1  0
  7  6  2  0
  8  7  1  0
 11  8  1  0
 12 11  1  0
  9  8  2  0
 10  9  1  0
 10  5  2  0
M  END
> <structure>
bg33_4

> <pose>
4

> <is_reference>
0

> <rmsd_to_reference_A>
9.275

> <vina_score>
-4.4

> <minimizedAffinity>
-4.32973

> <CNNscore>
0.3210482597

> <CNNaffinity>
4.4080319405

> <CNN_VS>
1.4151909351

> <CNNaffinity_variance>
0.7899700999

$$$$
bg33_4_pose5


 20 20  0  0  0  0  0  0  0  0999 V2000
    8.5960    0.2000   -0.5560 C   0  0  0  0  0  0  0  0  0  0  0  0
    9.7210    0.5780   -1.0040 O   0  0  0  0  0  0  0  0  0  0  0  0
    7.5600    1.1310   -0.0830 C   0  0  0  0  0  0  0  0  0  0  0  0
    6.1990    0.8720   -0.4580 C   0  0  0  0  0  0  0  0  0  0  0  0
    5.0910    1.8480   -0.0960 C   0  0  0  0  0  0  0  0  0  0  0  0
    3.7640    1.4800   -0.0440 C   0  0  0  0  0  0  0  0  0  0  0  0
    2.7390    2.4260    0.3060 C   0  0  0  0  0  0  0  0  0  0  0  0
    3.0390    3.7600    0.6330 C   0  0  0  0  0  0  0  0  0  0  0  0
    4.3890    4.1010    0.5890 C   0  0  0  0  0  0  0  0  0  0  0  0
    5.3850    3.1740    0.2520 C   0  0  0  0  0  0  0  0  0  0  0  0
    2.1060    4.6970    1.0310 O   0  0  0  0  0  0  0  0  0  0  0  0
    2.5180    6.0830    1.1420 C   0  0  0  0  0  0  0  0  0  0  0  0
    8.2100   -1.2120   -0.6250 O   0  0  0  0  0  0  0  0  0  0  0  0
    8.3280   -2.0080    0.5050 C   0  0  0  0  0  0  0  0  0  0  0  0
    9.4930   -2.9530    0.0890 C   0  0  0  0  0  0  0  0  0  0  0  0
    9.2090   -3.6500   -1.2810 C   0  0  0  0  0  0  0  0  0  0  0  0
    6.9330   -2.7400    0.7750 C   0  0  0  0  0  0  0  0  0  0  0  0
    6.5220   -2.5710    2.2150 C   0  0  0  0  0  0  0  0  0  0  0  0
    5.5330   -0.3660    2.9800 C   0  0  0  0  0  0  0  0  0  0  0  0
    6.7870   -1.1590    2.7320 C   0  0  0  0  0  0  0  0  0  0  0  0
 20 19  1  0
 18 20  1  0
 17 18  1  0
 14 17  1  0
 15 14  1  0
 16 15  1  0
 13 14  1  0
  1 13  1  0
  2  1  2  0
  3  1  1  0
  4  3  2  0
  5  4  1  0
  6  5  1  0
  7  6  2  0
  8  7  1  0
 11  8  1  0
 12 11  1  0
  9  8  2  0
 10  9  1  0
 10  5  2  0
M  END
> <structure>
bg33_4

> <pose>
5

> <is_reference>
0

> <rmsd_to_reference_A>
9.638

> <vina_score>
-4.4

> <minimizedAffinity>
-4.05341

> <CNNscore>
0.2469720244

> <CNNaffinity>
4.2037448883

> <CNN_VS>
1.0382074118

> <CNNaffinity_variance>
0.1147927046

$$$$
bg33_4_pose6


 20 20  0  0  0  0  0  0  0  0999 V2000
   -0.4730   -3.0640    5.6000 C   0  0  0  0  0  0  0  0  0  0  0  0
    0.1100   -3.9860    6.2470 O   0  0  0  0  0  0  0  0  0  0  0  0
    0.2340   -2.1330    4.7070 C   0  0  0  0  0  0  0  0  0  0  0  0
   -0.3270   -0.8270    4.5140 C   0  0  0  0  0  0  0  0  0  0  0  0
    0.2910    0.1490    3.5250 C   0  0  0  0  0  0  0  0  0  0  0  0
    0.3760   -0.1150    2.1740 C   0  0  0  0  0  0  0  0  0  0  0  0
    0.9610    0.8300    1.2630 C   0  0  0  0  0  0  0  0  0  0  0  0
    1.4550    2.0730    1.6980 C   0  0  0  0  0  0  0  0  0  0  0  0
    1.3410    2.3220    3.0630 C   0  0  0  0  0  0  0  0  0  0  0  0
    0.7640    1.3990    3.9470 C   0  0  0  0  0  0  0  0  0  0  0  0
    1.9750    3.0430    0.8630 O   0  0  0  0  0  0  0  0  0  0  0  0
    2.9870    2.6580   -0.1010 C   0  0  0  0  0  0  0  0  0  0  0  0
   -1.9350   -2.9730    5.5970 O   0  0  0  0  0  0  0  0  0  0  0  0
   -2.6190   -2.9620    6.8040 C   0  0  0  0  0  0  0  0  0  0  0  0
   -4.0550   -3.3450    6.3410 C   0  0  0  0  0  0  0  0  0  0  0  0
   -4.0290   -4.4270    5.2130 C   0  0  0  0  0  0  0  0  0  0  0  0
   -2.4900   -1.5100    7.4620 C   0  0  0  0  0  0  0  0  0  0  0  0
   -3.6070   -0.6170    6.9840 C   0  0  0  0  0  0  0  0  0  0  0  0
   -3.7400    1.8600    6.4620 C   0  0  0  0  0  0  0  0  0  0  0  0
   -3.0980    0.5410    6.1290 C   0  0  0  0  0  0  0  0  0  0  0  0
 20 19  1  0
 18 20  1  0
 17 18  1  0
 14 17  1  0
 15 14  1  0
 16 15  1  0
 13 14  1  0
  1 13  1  0
  2  1  2  0
  3  1  1  0
  4  3  2  0
  5  4  1  0
  6  5  1  0
  7  6  2  0
  8  7  1  0
 11  8  1  0
 12 11  1  0
  9  8  2  0
 10  9  1  0
 10  5  2  0
M  END
> <structure>
bg33_4

> <pose>
6

> <is_reference>
0

> <rmsd_to_reference_A>
1.301

> <vina_score>
-4.4

> <minimizedAffinity>
-4.34386

> <CNNscore>
0.3579939306

> <CNNaffinity>
4.5678582191

> <CNN_VS>
1.6352654696

> <CNNaffinity_variance>
0.1779897362

$$$$
bg33_4_pose7


 20 20  0  0  0  0  0  0  0  0999 V2000
    2.9980    2.2270    0.4110 C   0  0  0  0  0  0  0  0  0  0  0  0
    2.4770    3.3080    0.0010 O   0  0  0  0  0  0  0  0  0  0  0  0
    2.5080    1.4870    1.5840 C   0  0  0  0  0  0  0  0  0  0  0  0
    1.1270    1.1000    1.6090 C   0  0  0  0  0  0  0  0  0  0  0  0
    0.5270    0.4280    2.8340 C   0  0  0  0  0  0  0  0  0  0  0  0
   -0.2430    1.1080    3.7540 C   0  0  0  0  0  0  0  0  0  0  0  0
   -0.8000    0.4440    4.9000 C   0  0  0  0  0  0  0  0  0  0  0  0
   -0.6060   -0.9300    5.1290 C   0  0  0  0  0  0  0  0  0  0  0  0
    0.1610   -1.5970    4.1770 C   0  0  0  0  0  0  0  0  0  0  0  0
    0.6970   -0.9450    3.0580 C   0  0  0  0  0  0  0  0  0  0  0  0
   -1.1620   -1.6340    6.1790 O   0  0  0  0  0  0  0  0  0  0  0  0
   -0.2900   -2.4320    7.0190 C   0  0  0  0  0  0  0  0  0  0  0  0
    4.0480    1.5690   -0.3730 O   0  0  0  0  0  0  0  0  0  0  0  0
    5.2690    1.2910    0.2230 C   0  0  0  0  0  0  0  0  0  0  0  0
    5.8500    2.7240    0.4040 C   0  0  0  0  0  0  0  0  0  0  0  0
    6.5070    2.9070    1.8110 C   0  0  0  0  0  0  0  0  0  0  0  0
    6.1160    0.3410   -0.7450 C   0  0  0  0  0  0  0  0  0  0  0  0
    6.9370   -0.6310    0.0630 C   0  0  0  0  0  0  0  0  0  0  0  0
    8.8450    0.7230   -0.9150 C   0  0  0  0  0  0  0  0  0  0  0  0
    8.3950   -0.1930    0.1900 C   0  0  0  0  0  0  0  0  0  0  0  0
 20 19  1  0
 18 20  1  0
 17 18  1  0
 14 17  1  0
 15 14  1  0
 16 15  1  0
 13 14  1  0
  1 13  1  0
  2  1  2  0
  3  1  1  0
  4  3  2  0
  5  4  1  0
  6  5  1  0
  7  6  2  0
  8  7  1  0
 11  8  1  0
 12 11  1  0
  9  8  2  0
 10  9  1  0
 10  5  2  0
M  END
> <structure>
bg33_4

> <pose>
7

> <is_reference>
0

> <rmsd_to_reference_A>
9.297

> <vina_score>
-4.4

> <minimizedAffinity>
-4.40398

> <CNNscore>
0.3856219351

> <CNNaffinity>
4.3114562035

> <CNN_VS>
1.6625920534

> <CNNaffinity_variance>
0.3275121152

$$$$
bg33_4_pose8


 20 20  0  0  0  0  0  0  0  0999 V2000
    2.4240    2.7370    0.5880 C   0  0  0  0  0  0  0  0  0  0  0  0
    3.1400    2.4620   -0.4220 O   0  0  0  0  0  0  0  0  0  0  0  0
    2.1020    1.7600    1.6400 C   0  0  0  0  0  0  0  0  0  0  0  0
    0.7280    1.3820    1.8110 C   0  0  0  0  0  0  0  0  0  0  0  0
    0.3090    0.4600    2.9450 C   0  0  0  0  0  0  0  0  0  0  0  0
    0.5960   -0.8880    2.9530 C   0  0  0  0  0  0  0  0  0  0  0  0
    0.1890   -1.7330    4.0420 C   0  0  0  0  0  0  0  0  0  0  0  0
   -0.5000   -1.2260    5.1580 C   0  0  0  0  0  0  0  0  0  0  0  0
   -0.7620    0.1410    5.1330 C   0  0  0  0  0  0  0  0  0  0  0  0
   -0.3580    0.9620    4.0710 C   0  0  0  0  0  0  0  0  0  0  0  0
   -0.8650   -1.9770    6.2580 O   0  0  0  0  0  0  0  0  0  0  0  0
   -2.2750   -2.1280    6.5580 C   0  0  0  0  0  0  0  0  0  0  0  0
    1.9960    4.1160    0.8370 O   0  0  0  0  0  0  0  0  0  0  0  0
    2.7180    4.9050    1.7200 C   0  0  0  0  0  0  0  0  0  0  0  0
    1.6230    5.2680    2.7650 C   0  0  0  0  0  0  0  0  0  0  0  0
    1.7640    4.4160    4.0690 C   0  0  0  0  0  0  0  0  0  0  0  0
    3.3280    6.1520    0.9260 C   0  0  0  0  0  0  0  0  0  0  0  0
    2.2220    6.9930    0.3430 C   0  0  0  0  0  0  0  0  0  0  0  0
    1.7160    8.9250   -1.2200 C   0  0  0  0  0  0  0  0  0  0  0  0
    2.7540    8.2270   -0.3840 C   0  0  0  0  0  0  0  0  0  0  0  0
 20 19  1  0
 18 20  1  0
 17 18  1  0
 14 17  1  0
 15 14  1  0
 16 15  1  0
 13 14  1  0
  1 13  1  0
  2  1  2  0
  3  1  1  0
  4  3  2  0
  5  4  1  0
  6  5  1  0
  7  6  2  0
  8  7  1  0
 11  8  1  0
 12 11  1  0
  9  8  2  0
 10  9  1  0
 10  5  2  0
M  END
> <structure>
bg33_4

> <pose>
8

> <is_reference>
0

> <rmsd_to_reference_A>
8.411

> <vina_score>
-4.3

> <minimizedAffinity>
-4.41158

> <CNNscore>
0.3143073916

> <CNNaffinity>
4.3990936279

> <CNN_VS>
1.3826676607

> <CNNaffinity_variance>
0.2323152870

$$$$
bg33_4_pose9


 20 20  0  0  0  0  0  0  0  0999 V2000
    2.4480    3.1810    0.6520 C   0  0  0  0  0  0  0  0  0  0  0  0
    1.4570    2.4730    1.0080 O   0  0  0  0  0  0  0  0  0  0  0  0
    3.6740    2.6170    0.0650 C   0  0  0  0  0  0  0  0  0  0  0  0
    4.6490    2.0520    0.9530 C   0  0  0  0  0  0  0  0  0  0  0  0
    5.9840    1.5480    0.4270 C   0  0  0  0  0  0  0  0  0  0  0  0
    6.0890    0.4590   -0.4110 C   0  0  0  0  0  0  0  0  0  0  0  0
    7.3660    0.0090   -0.8960 C   0  0  0  0  0  0  0  0  0  0  0  0
    8.5620    0.6670   -0.5590 C   0  0  0  0  0  0  0  0  0  0  0  0
    8.4250    1.7740    0.2750 C   0  0  0  0  0  0  0  0  0  0  0  0
    7.1780    2.2120    0.7400 C   0  0  0  0  0  0  0  0  0  0  0  0
    9.8080    0.3170   -1.0380 O   0  0  0  0  0  0  0  0  0  0  0  0
   10.5940   -0.6470   -0.2920 C   0  0  0  0  0  0  0  0  0  0  0  0
    2.3580    4.6430    0.6740 O   0  0  0  0  0  0  0  0  0  0  0  0
    2.9370    5.3460    1.7210 C   0  0  0  0  0  0  0  0  0  0  0  0
    1.6960    6.0680    2.3220 C   0  0  0  0  0  0  0  0  0  0  0  0
    1.0250    7.0240    1.2820 C   0  0  0  0  0  0  0  0  0  0  0  0
    4.0630    6.3180    1.1370 C   0  0  0  0  0  0  0  0  0  0  0  0
    5.3980    5.6180    1.1090 C   0  0  0  0  0  0  0  0  0  0  0  0
    7.5190    6.0350   -0.2150 C   0  0  0  0  0  0  0  0  0  0  0  0
    6.0580    5.6810   -0.2660 C   0  0  0  0  0  0  0  0  0  0  0  0
 20 19  1  0
 18 20  1  0
 17 18  1  0
 14 17  1  0
 15 14  1  0
 16 15  1  0
 13 14  1  0
  1 13  1  0
  2  1  2  0
  3  1  1  0
  4  3  2  0
  5  4  1  0
  6  5  1  0
  7  6  2  0
  8  7  1  0
 11  8  1  0
 12 11  1  0
  9  8  2  0
 10  9  1  0
 10  5  2  0
M  END
> <structure>
bg33_4

> <pose>
9

> <is_reference>
0

> <rmsd_to_reference_A>
9.378

> <vina_score>
-4.3

> <minimizedAffinity>
-4.06100

> <CNNscore>
0.2390915751

> <CNNaffinity>
4.2819809914

> <CNN_VS>
1.0237855911

> <CNNaffinity_variance>
0.3104658723

$$$$
