s2_esm2_control_pose0_reference


 20 20  0  0  0  0  0  0  0  0999 V2000
   -4.6420   -0.6730    3.2070 C   0  0  0  0  0  0  0  0  0  0  0  0
   -3.4740   -0.9050    3.3720 O   0  0  0  0  0  0  0  0  0  0  0  0
   -5.3930   -1.0710    1.9890 C   0  0  0  0  0  0  0  0  0  0  0  0
   -4.7310   -1.7510    1.0110 C   0  0  0  0  0  0  0  0  0  0  0  0
   -5.3770   -2.2380   -0.2240 C   0  0  0  0  0  0  0  0  0  0  0  0
   -4.5890   -2.8770   -1.1640 C   0  0  0  0  0  0  0  0  0  0  0  0
   -5.1420   -3.3680   -2.3320 C   0  0  0  0  0  0  0  0  0  0  0  0
   -6.4830   -3.2290   -2.5780 C   0  0  0  0  0  0  0  0  0  0  0  0
   -7.2720   -2.5960   -1.6440 C   0  0  0  0  0  0  0  0  0  0  0  0
   -6.7160   -2.1010   -0.4710 C   0  0  0  0  0  0  0  0  0  0  0  0
   -6.9750   -3.7310   -3.7350 O   0  0  0  0  0  0  0  0  0  0  0  0
   -8.3740   -3.6930   -3.9860 C   0  0  0  0  0  0  0  0  0  0  0  0
   -5.3640   -0.0380    4.1530 O   0  0  0  0  0  0  0  0  0  0  0  0
   -4.7460    0.3200    5.3770 C   0  0  0  0  0  0  0  0  0  0  0  0
   -4.9560    1.8150    5.6070 C   0  0  0  0  0  0  0  0  0  0  0  0
   -3.6710    2.6210    5.6820 C   0  0  0  0  0  0  0  0  0  0  0  0
   -5.3660   -0.4640    6.5080 C   0  0  0  0  0  0  0  0  0  0  0  0
   -5.3980   -1.9430    6.2770 C   0  0  0  0  0  0  0  0  0  0  0  0
   -6.0680   -4.1780    7.1590 C   0  0  0  0  0  0  0  0  0  0  0  0
   -5.9590   -2.6860    7.4530 C   0  0  0  0  0  0  0  0  0  0  0  0
 20 19  1  0
 18 20  1  0
 17 18  1  0
 14 17  1  0
 15 14  1  0
 16 15  1  0
 13 14  1  0
  1 13  1  0
  2  1  2  0
  3  1  1  0
  4  3  2  0
  5  4  1  0
  6  5  1  0
  7  6  2  0
  8  7  1  0
 11  8  1  0
 12 11  1  0
  9  8  2  0
 10  9  1  0
 10  5  2  0
M  END
> <structure>
s2_esm2_control

> <pose>
0

> <is_reference>
1

> <rmsd_to_reference_A>
0.000

> <vina_score>


> <minimizedAffinity>
-3.30266

> <CNNscore>
0.5591675043

> <CNNaffinity>
4.5767836571

> <CNN_VS>
2.5591886044

> <CNNaffinity_variance>
0.1822968125

$$$$
s2_esm2_control_pose1


 20 20  0  0  0  0  0  0  0  0999 V2000
   -4.3990    2.3780    5.3240 C   0  0  0  0  0  0  0  0  0  0  0  0
   -5.2630    3.2140    5.3120 O   0  0  0  0  0  0  0  0  0  0  0  0
   -3.0080    2.6430    5.7720 C   0  0  0  0  0  0  0  0  0  0  0  0
   -2.8110    3.5200    6.7960 C   0  0  0  0  0  0  0  0  0  0  0  0
   -1.4820    3.8320    7.3580 C   0  0  0  0  0  0  0  0  0  0  0  0
   -1.4080    4.2110    8.6860 C   0  0  0  0  0  0  0  0  0  0  0  0
   -0.1890    4.5000    9.2700 C   0  0  0  0  0  0  0  0  0  0  0  0
    0.9690    4.4160    8.5420 C   0  0  0  0  0  0  0  0  0  0  0  0
    0.9000    4.0360    7.2200 C   0  0  0  0  0  0  0  0  0  0  0  0
   -0.3250    3.7480    6.6320 C   0  0  0  0  0  0  0  0  0  0  0  0
    2.1360    4.7060    9.1620 O   0  0  0  0  0  0  0  0  0  0  0  0
    3.3100    4.9380    8.3930 C   0  0  0  0  0  0  0  0  0  0  0  0
   -4.6550    1.1100    4.9410 O   0  0  0  0  0  0  0  0  0  0  0  0
   -4.0100    0.0390    5.6070 C   0  0  0  0  0  0  0  0  0  0  0  0
   -4.9190   -0.4510    6.7320 C   0  0  0  0  0  0  0  0  0  0  0  0
   -5.3070   -1.9160    6.6280 C   0  0  0  0  0  0  0  0  0  0  0  0
   -3.7520   -1.0840    4.6320 C   0  0  0  0  0  0  0  0  0  0  0  0
   -3.4300   -0.6230    3.2450 C   0  0  0  0  0  0  0  0  0  0  0  0
   -5.1980   -2.3350    2.8350 C   0  0  0  0  0  0  0  0  0  0  0  0
   -4.3460   -1.2290    2.2220 C   0  0  0  0  0  0  0  0  0  0  0  0
 20 19  1  0
 18 20  1  0
 17 18  1  0
 14 17  1  0
 15 14  1  0
 16 15  1  0
 13 14  1  0
  1 13  1  0
  2  1  2  0
  3  1  1  0
  4  3  2  0
  5  4  1  0
  6  5  1  0
  7  6  2  0
  8  7  1  0
 11  8  1  0
 12 11  1  0
  9  8  2  0
 10  9  1  0
 10  5  2  0
M  END
> <structure>
s2_esm2_control

> <pose>
1

> <is_reference>
0

> <rmsd_to_reference_A>
9.888

> <vina_score>
-5.0

> <minimizedAffinity>
-5.04333

> <CNNscore>
0.6870432496

> <CNNaffinity>
4.6313424110

> <CNN_VS>
3.1819324493

> <CNNaffinity_variance>
0.2068522125

$$$$
s2_esm2_control_pose2


 20 20  0  0  0  0  0  0  0  0999 V2000
   -2.9030    4.4710    6.3830 C   0  0  0  0  0  0  0  0  0  0  0  0
   -3.7970    5.2690    6.2810 O   0  0  0  0  0  0  0  0  0  0  0  0
   -3.1210    3.0130    6.5620 C   0  0  0  0  0  0  0  0  0  0  0  0
   -3.8290    2.3410    5.6110 C   0  0  0  0  0  0  0  0  0  0  0  0
   -4.0750    0.8860    5.6550 C   0  0  0  0  0  0  0  0  0  0  0  0
   -3.4970    0.0970    4.6770 C   0  0  0  0  0  0  0  0  0  0  0  0
   -3.6790   -1.2740    4.6760 C   0  0  0  0  0  0  0  0  0  0  0  0
   -4.4380   -1.8740    5.6470 C   0  0  0  0  0  0  0  0  0  0  0  0
   -5.0140   -1.0930    6.6240 C   0  0  0  0  0  0  0  0  0  0  0  0
   -4.8320    0.2840    6.6240 C   0  0  0  0  0  0  0  0  0  0  0  0
   -4.5820   -3.2190    5.6030 O   0  0  0  0  0  0  0  0  0  0  0  0
   -4.9340   -3.9330    6.7820 C   0  0  0  0  0  0  0  0  0  0  0  0
   -1.6130    4.8620    6.3180 O   0  0  0  0  0  0  0  0  0  0  0  0
   -0.6140    3.9110    5.9920 C   0  0  0  0  0  0  0  0  0  0  0  0
   -0.2340    4.0920    4.5240 C   0  0  0  0  0  0  0  0  0  0  0  0
   -0.4770    5.4900    3.9840 C   0  0  0  0  0  0  0  0  0  0  0  0
    0.5980    4.1290    6.8640 C   0  0  0  0  0  0  0  0  0  0  0  0
    0.4830    3.5230    8.2290 C   0  0  0  0  0  0  0  0  0  0  0  0
   -1.1230    4.4890    9.8750 C   0  0  0  0  0  0  0  0  0  0  0  0
    0.2840    4.5620    9.2920 C   0  0  0  0  0  0  0  0  0  0  0  0
 20 19  1  0
 18 20  1  0
 17 18  1  0
 14 17  1  0
 15 14  1  0
 16 15  1  0
 13 14  1  0
  1 13  1  0
  2  1  2  0
  3  1  1  0
  4  3  2  0
  5  4  1  0
  6  5  1  0
  7  6  2  0
  8  7  1  0
 11  8  1  0
 12 11  1  0
  9  8  2  0
 10  9  1  0
 10  5  2  0
M  END
> <structure>
s2_esm2_control

> <pose>
2

> <is_reference>
0

> <rmsd_to_reference_A>
7.725

> <vina_score>
-5.0

> <minimizedAffinity>
-4.96528

> <CNNscore>
0.4117881954

> <CNNaffinity>
3.9571800232

> <CNN_VS>
1.6295200586

> <CNNaffinity_variance>
0.7352471352

$$$$
s2_esm2_control_pose3


 20 20  0  0  0  0  0  0  0  0999 V2000
   -2.4040    4.2820    5.9320 C   0  0  0  0  0  0  0  0  0  0  0  0
   -3.0030    5.0700    5.2500 O   0  0  0  0  0  0  0  0  0  0  0  0
   -2.5040    2.8100    5.7640 C   0  0  0  0  0  0  0  0  0  0  0  0
   -3.7300    2.2250    5.8720 C   0  0  0  0  0  0  0  0  0  0  0  0
   -3.9650    0.7800    5.6830 C   0  0  0  0  0  0  0  0  0  0  0  0
   -4.7390    0.1170    6.6180 C   0  0  0  0  0  0  0  0  0  0  0  0
   -5.0050   -1.2330    6.4840 C   0  0  0  0  0  0  0  0  0  0  0  0
   -4.5050   -1.9380    5.4200 C   0  0  0  0  0  0  0  0  0  0  0  0
   -3.7360   -1.2810    4.4860 C   0  0  0  0  0  0  0  0  0  0  0  0
   -3.4670    0.0750    4.6210 C   0  0  0  0  0  0  0  0  0  0  0  0
   -4.7990   -3.2560    5.3340 O   0  0  0  0  0  0  0  0  0  0  0  0
   -4.3970   -4.1420    6.3710 C   0  0  0  0  0  0  0  0  0  0  0  0
   -1.5670    4.7000    6.9030 O   0  0  0  0  0  0  0  0  0  0  0  0
   -0.5580    3.8250    7.3780 C   0  0  0  0  0  0  0  0  0  0  0  0
    0.7930    4.3170    6.8630 C   0  0  0  0  0  0  0  0  0  0  0  0
    1.9230    4.2030    7.8700 C   0  0  0  0  0  0  0  0  0  0  0  0
   -0.5590    3.8200    8.8870 C   0  0  0  0  0  0  0  0  0  0  0  0
   -1.6010    4.7050    9.4980 C   0  0  0  0  0  0  0  0  0  0  0  0
    0.1970    5.4650   11.0510 C   0  0  0  0  0  0  0  0  0  0  0  0
   -1.2690    5.0720   10.9140 C   0  0  0  0  0  0  0  0  0  0  0  0
 20 19  1  0
 18 20  1  0
 17 18  1  0
 14 17  1  0
 15 14  1  0
 16 15  1  0
 13 14  1  0
  1 13  1  0
  2  1  2  0
  3  1  1  0
  4  3  2  0
  5  4  1  0
  6  5  1  0
  7  6  2  0
  8  7  1  0
 11  8  1  0
 12 11  1  0
  9  8  2  0
 10  9  1  0
 10  5  2  0
M  END
> <structure>
s2_esm2_control

> <pose>
3

> <is_reference>
0

> <rmsd_to_reference_A>
7.824

> <vina_score>
-4.9

> <minimizedAffinity>
-4.96108

> <CNNscore>
0.3239326179

> <CNNaffinity>
3.7561924458

> <CNN_VS>
1.2167532444

> <CNNaffinity_variance>
0.7488020062

$$$$
s2_esm2_control_pose4


 20 20  0  0  0  0  0  0  0  0999 V2000
   -5.2000   -3.4870   -2.5480 C   0  0  0  0  0  0  0  0  0  0  0  0
   -6.3050   -3.3490   -3.0010 O   0  0  0  0  0  0  0  0  0  0  0  0
   -4.7260   -2.8020   -1.3180 C   0  0  0  0  0  0  0  0  0  0  0  0
   -5.4250   -2.9870   -0.1620 C   0  0  0  0  0  0  0  0  0  0  0  0
   -5.0300   -2.3960    1.1320 C   0  0  0  0  0  0  0  0  0  0  0  0
   -4.1640   -1.3180    1.1200 C   0  0  0  0  0  0  0  0  0  0  0  0
   -3.7720   -0.7150    2.3010 C   0  0  0  0  0  0  0  0  0  0  0  0
   -4.2370   -1.1760    3.5050 C   0  0  0  0  0  0  0  0  0  0  0  0
   -5.1020   -2.2470    3.5210 C   0  0  0  0  0  0  0  0  0  0  0  0
   -5.4940   -2.8550    2.3350 C   0  0  0  0  0  0  0  0  0  0  0  0
   -3.8260   -0.5470    4.6310 O   0  0  0  0  0  0  0  0  0  0  0  0
   -4.4360    0.6760    5.0230 C   0  0  0  0  0  0  0  0  0  0  0  0
   -4.3070   -4.3110   -3.1340 O   0  0  0  0  0  0  0  0  0  0  0  0
   -3.8350   -4.0120   -4.4370 C   0  0  0  0  0  0  0  0  0  0  0  0
   -2.3390   -3.7200   -4.3560 C   0  0  0  0  0  0  0  0  0  0  0  0
   -1.6760   -4.2130   -3.0810 C   0  0  0  0  0  0  0  0  0  0  0  0
   -4.0790   -5.1900   -5.3490 C   0  0  0  0  0  0  0  0  0  0  0  0
   -5.0680   -4.9200   -6.4400 C   0  0  0  0  0  0  0  0  0  0  0  0
   -5.3860   -2.9690   -7.9600 C   0  0  0  0  0  0  0  0  0  0  0  0
   -5.4380   -3.4690   -6.5210 C   0  0  0  0  0  0  0  0  0  0  0  0
 20 19  1  0
 18 20  1  0
 17 18  1  0
 14 17  1  0
 15 14  1  0
 16 15  1  0
 13 14  1  0
  1 13  1  0
  2  1  2  0
  3  1  1  0
  4  3  2  0
  5  4  1  0
  6  5  1  0
  7  6  2  0
  8  7  1  0
 11  8  1  0
 12 11  1  0
  9  8  2  0
 10  9  1  0
 10  5  2  0
M  END
> <structure>
s2_esm2_control

> <pose>
4

> <is_reference>
0

> <rmsd_to_reference_A>
9.116

> <vina_score>
-4.9

> <minimizedAffinity>
-5.02591

> <CNNscore>
0.6195391417

> <CNNaffinity>
4.4197497368

> <CNN_VS>
2.7382080555

> <CNNaffinity_variance>
0.2734397948

$$$$
s2_esm2_control_pose5


 20 20  0  0  0  0  0  0  0  0999 V2000
   -6.5180   -4.0510   -3.3060 C   0  0  0  0  0  0  0  0  0  0  0  0
   -7.2890   -4.9710   -3.2460 O   0  0  0  0  0  0  0  0  0  0  0  0
   -6.2730   -3.1110   -2.1820 C   0  0  0  0  0  0  0  0  0  0  0  0
   -5.4290   -3.4980   -1.1850 C   0  0  0  0  0  0  0  0  0  0  0  0
   -5.0720   -2.6380   -0.0390 C   0  0  0  0  0  0  0  0  0  0  0  0
   -5.5050   -3.0140    1.2190 C   0  0  0  0  0  0  0  0  0  0  0  0
   -5.1880   -2.2560    2.3310 C   0  0  0  0  0  0  0  0  0  0  0  0
   -4.4380   -1.1170    2.2040 C   0  0  0  0  0  0  0  0  0  0  0  0
   -4.0020   -0.7390    0.9530 C   0  0  0  0  0  0  0  0  0  0  0  0
   -4.3230   -1.5000   -0.1640 C   0  0  0  0  0  0  0  0  0  0  0  0
   -4.1510   -0.4130    3.3240 O   0  0  0  0  0  0  0  0  0  0  0  0
   -2.9660   -0.6960    4.0560 C   0  0  0  0  0  0  0  0  0  0  0  0
   -5.7960   -3.8230   -4.4220 O   0  0  0  0  0  0  0  0  0  0  0  0
   -5.0480   -4.8810   -4.9950 C   0  0  0  0  0  0  0  0  0  0  0  0
   -4.6940   -4.5020   -6.4320 C   0  0  0  0  0  0  0  0  0  0  0  0
   -5.3080   -3.1950   -6.9010 C   0  0  0  0  0  0  0  0  0  0  0  0
   -3.7850   -5.1010   -4.1980 C   0  0  0  0  0  0  0  0  0  0  0  0
   -2.7970   -3.9810   -4.3010 C   0  0  0  0  0  0  0  0  0  0  0  0
   -0.8760   -4.8620   -2.9760 C   0  0  0  0  0  0  0  0  0  0  0  0
   -1.9900   -3.8230   -3.0470 C   0  0  0  0  0  0  0  0  0  0  0  0
 20 19  1  0
 18 20  1  0
 17 18  1  0
 14 17  1  0
 15 14  1  0
 16 15  1  0
 13 14  1  0
  1 13  1  0
  2  1  2  0
  3  1  1  0
  4  3  2  0
  5  4  1  0
  6  5  1  0
  7  6  2  0
  8  7  1  0
 11  8  1  0
 12 11  1  0
  9  8  2  0
 10  9  1  0
 10  5  2  0
M  END
> <structure>
s2_esm2_control

> <pose>
5

> <is_reference>
0

> <rmsd_to_reference_A>
8.761

> <vina_score>
-4.9

> <minimizedAffinity>
-4.75836

> <CNNscore>
0.3371950984

> <CNNaffinity>
4.2156453133

> <CNN_VS>
1.4214949608

> <CNNaffinity_variance>
0.3919594288

$$$$
s2_esm2_control_pose6


 20 20  0  0  0  0  0  0  0  0999 V2000
   -6.3650   -2.5990   -0.3620 C   0  0  0  0  0  0  0  0  0  0  0  0
   -7.4910   -2.6540   -0.7780 O   0  0  0  0  0  0  0  0  0  0  0  0
   -5.2760   -3.5000   -0.8190 C   0  0  0  0  0  0  0  0  0  0  0  0
   -4.9150   -3.4680   -2.1330 C   0  0  0  0  0  0  0  0  0  0  0  0
   -3.8210   -4.2820   -2.6980 C   0  0  0  0  0  0  0  0  0  0  0  0
   -2.6220   -3.6550   -2.9850 C   0  0  0  0  0  0  0  0  0  0  0  0
   -1.5570   -4.3710   -3.5010 C   0  0  0  0  0  0  0  0  0  0  0  0
   -1.6730   -5.7160   -3.7360 C   0  0  0  0  0  0  0  0  0  0  0  0
   -2.8630   -6.3450   -3.4490 C   0  0  0  0  0  0  0  0  0  0  0  0
   -3.9340   -5.6260   -2.9330 C   0  0  0  0  0  0  0  0  0  0  0  0
   -0.5990   -6.3700   -4.2380 O   0  0  0  0  0  0  0  0  0  0  0  0
    0.7080   -6.0380   -3.7880 C   0  0  0  0  0  0  0  0  0  0  0  0
   -6.0080   -1.6760    0.5550 O   0  0  0  0  0  0  0  0  0  0  0  0
   -4.6760   -1.6540    1.0380 C   0  0  0  0  0  0  0  0  0  0  0  0
   -3.9980   -0.3820    0.5340 C   0  0  0  0  0  0  0  0  0  0  0  0
   -4.9120    0.5420   -0.2530 C   0  0  0  0  0  0  0  0  0  0  0  0
   -4.6820   -1.6660    2.5470 C   0  0  0  0  0  0  0  0  0  0  0  0
   -3.7220   -0.6990    3.1680 C   0  0  0  0  0  0  0  0  0  0  0  0
   -4.3500   -0.5850    5.5790 C   0  0  0  0  0  0  0  0  0  0  0  0
   -3.3390   -1.1000    4.5610 C   0  0  0  0  0  0  0  0  0  0  0  0
 20 19  1  0
 18 20  1  0
 17 18  1  0
 14 17  1  0
 15 14  1  0
 16 15  1  0
 13 14  1  0
  1 13  1  0
  2  1  2  0
  3  1  1  0
  4  3  2  0
  5  4  1  0
  6  5  1  0
  7  6  2  0
  8  7  1  0
 11  8  1  0
 12 11  1  0
  9  8  2  0
 10  9  1  0
 10  5  2  0
M  END
> <structure>
s2_esm2_control

> <pose>
6

> <is_reference>
0

> <rmsd_to_reference_A>
5.132

> <vina_score>
-4.6

> <minimizedAffinity>
-4.79783

> <CNNscore>
0.7574713826

> <CNNaffinity>
5.1674785614

> <CNN_VS>
3.9142172337

> <CNNaffinity_variance>
0.3942826986

$$$$
s2_esm2_control_pose7


 20 20  0  0  0  0  0  0  0  0999 V2000
   -5.4930   -3.8250   -2.7010 C   0  0  0  0  0  0  0  0  0  0  0  0
   -6.4360   -4.5630   -2.6010 O   0  0  0  0  0  0  0  0  0  0  0  0
   -4.9790   -2.9930   -1.5830 C   0  0  0  0  0  0  0  0  0  0  0  0
   -5.5250   -3.1600   -0.3460 C   0  0  0  0  0  0  0  0  0  0  0  0
   -5.0710   -2.4250    0.8510 C   0  0  0  0  0  0  0  0  0  0  0  0
   -5.5150   -2.8560    2.0890 C   0  0  0  0  0  0  0  0  0  0  0  0
   -5.1100   -2.2160    3.2450 C   0  0  0  0  0  0  0  0  0  0  0  0
   -4.2610   -1.1420    3.1850 C   0  0  0  0  0  0  0  0  0  0  0  0
   -3.8140   -0.7120    1.9560 C   0  0  0  0  0  0  0  0  0  0  0  0
   -4.2220   -1.3530    0.7930 C   0  0  0  0  0  0  0  0  0  0  0  0
   -3.8920   -0.5540    4.3470 O   0  0  0  0  0  0  0  0  0  0  0  0
   -4.3350   -1.0920    5.5860 C   0  0  0  0  0  0  0  0  0  0  0  0
   -4.8130   -3.7220   -3.8620 O   0  0  0  0  0  0  0  0  0  0  0  0
   -3.8260   -4.6880   -4.1790 C   0  0  0  0  0  0  0  0  0  0  0  0
   -4.2130   -5.3630   -5.4940 C   0  0  0  0  0  0  0  0  0  0  0  0
   -3.7070   -6.7870   -5.6360 C   0  0  0  0  0  0  0  0  0  0  0  0
   -2.4840   -4.0140   -4.3260 C   0  0  0  0  0  0  0  0  0  0  0  0
   -1.5750   -4.2060   -3.1510 C   0  0  0  0  0  0  0  0  0  0  0  0
    0.1810   -5.8240   -2.4300 C   0  0  0  0  0  0  0  0  0  0  0  0
   -1.2530   -5.6520   -2.9170 C   0  0  0  0  0  0  0  0  0  0  0  0
 20 19  1  0
 18 20  1  0
 17 18  1  0
 14 17  1  0
 15 14  1  0
 16 15  1  0
 13 14  1  0
  1 13  1  0
  2  1  2  0
  3  1  1  0
  4  3  2  0
  5  4  1  0
  6  5  1  0
  7  6  2  0
  8  7  1  0
 11  8  1  0
 12 11  1  0
  9  8  2  0
 10  9  1  0
 10  5  2  0
M  END
> <structure>
s2_esm2_control

> <pose>
7

> <is_reference>
0

> <rmsd_to_reference_A>
8.789

> <vina_score>
-4.6

> <minimizedAffinity>
-4.71803

> <CNNscore>
0.5272403955

> <CNNaffinity>
4.4050650597

> <CNN_VS>
2.3225283623

> <CNNaffinity_variance>
0.3012430370

$$$$
s2_esm2_control_pose8


 20 20  0  0  0  0  0  0  0  0999 V2000
   -5.3820   -4.1570   -2.8490 C   0  0  0  0  0  0  0  0  0  0  0  0
   -6.2460   -3.7430   -3.5760 O   0  0  0  0  0  0  0  0  0  0  0  0
   -5.3370   -3.8840   -1.3900 C   0  0  0  0  0  0  0  0  0  0  0  0
   -4.8450   -2.6850   -0.9690 C   0  0  0  0  0  0  0  0  0  0  0  0
   -4.7890   -2.2800    0.4500 C   0  0  0  0  0  0  0  0  0  0  0  0
   -4.0330   -1.1700    0.7820 C   0  0  0  0  0  0  0  0  0  0  0  0
   -3.9560   -0.7350    2.0910 C   0  0  0  0  0  0  0  0  0  0  0  0
   -4.6300   -1.3970    3.0840 C   0  0  0  0  0  0  0  0  0  0  0  0
   -5.3870   -2.5000    2.7580 C   0  0  0  0  0  0  0  0  0  0  0  0
   -5.4620   -2.9390    1.4420 C   0  0  0  0  0  0  0  0  0  0  0  0
   -4.5250   -0.9270    4.3500 O   0  0  0  0  0  0  0  0  0  0  0  0
   -3.5910    0.1030    4.6480 C   0  0  0  0  0  0  0  0  0  0  0  0
   -4.3870   -4.9330   -3.3260 O   0  0  0  0  0  0  0  0  0  0  0  0
   -3.8260   -4.6440   -4.5950 C   0  0  0  0  0  0  0  0  0  0  0  0
   -2.5750   -3.7940   -4.3900 C   0  0  0  0  0  0  0  0  0  0  0  0
   -1.7810   -4.1430   -3.1430 C   0  0  0  0  0  0  0  0  0  0  0  0
   -3.4620   -5.9310   -5.2950 C   0  0  0  0  0  0  0  0  0  0  0  0
   -3.7420   -7.1620   -4.4890 C   0  0  0  0  0  0  0  0  0  0  0  0
   -1.2890   -7.5020   -4.7880 C   0  0  0  0  0  0  0  0  0  0  0  0
   -2.6450   -8.1770   -4.6090 C   0  0  0  0  0  0  0  0  0  0  0  0
 20 19  1  0
 18 20  1  0
 17 18  1  0
 14 17  1  0
 15 14  1  0
 16 15  1  0
 13 14  1  0
  1 13  1  0
  2  1  2  0
  3  1  1  0
  4  3  2  0
  5  4  1  0
  6  5  1  0
  7  6  2  0
  8  7  1  0
 11  8  1  0
 12 11  1  0
  9  8  2  0
 10  9  1  0
 10  5  2  0
M  END
> <structure>
s2_esm2_control

> <pose>
8

> <is_reference>
0

> <rmsd_to_reference_A>
8.900

> <vina_score>
-4.5

> <minimizedAffinity>
-4.48381

> <CNNscore>
0.4754063487

> <CNNaffinity>
4.3543858528

> <CNN_VS>
2.0701026917

> <CNNaffinity_variance>
0.1867210865

$$$$
s2_esm2_control_pose9


 20 20  0  0  0  0  0  0  0  0999 V2000
   -6.4630   -3.4610   -1.5290 C   0  0  0  0  0  0  0  0  0  0  0  0
   -7.3890   -4.1070   -1.9410 O   0  0  0  0  0  0  0  0  0  0  0  0
   -6.2790   -3.1130   -0.0960 C   0  0  0  0  0  0  0  0  0  0  0  0
   -5.1080   -2.5290    0.2850 C   0  0  0  0  0  0  0  0  0  0  0  0
   -4.8240   -2.0990    1.6680 C   0  0  0  0  0  0  0  0  0  0  0  0
   -3.9750   -1.0230    1.8550 C   0  0  0  0  0  0  0  0  0  0  0  0
   -3.6850   -0.5650    3.1270 C   0  0  0  0  0  0  0  0  0  0  0  0
   -4.2350   -1.1720    4.2260 C   0  0  0  0  0  0  0  0  0  0  0  0
   -5.0830   -2.2420    4.0450 C   0  0  0  0  0  0  0  0  0  0  0  0
   -5.3730   -2.7030    2.7660 C   0  0  0  0  0  0  0  0  0  0  0  0
   -3.9230   -0.6830    5.4490 O   0  0  0  0  0  0  0  0  0  0  0  0
   -4.9260   -0.5840    6.4510 C   0  0  0  0  0  0  0  0  0  0  0  0
   -5.4990   -3.0190   -2.3620 O   0  0  0  0  0  0  0  0  0  0  0  0
   -4.6170   -3.9510   -2.9630 C   0  0  0  0  0  0  0  0  0  0  0  0
   -4.7970   -3.8830   -4.4780 C   0  0  0  0  0  0  0  0  0  0  0  0
   -5.6950   -4.9660   -5.0480 C   0  0  0  0  0  0  0  0  0  0  0  0
   -3.1920   -3.6080   -2.6010 C   0  0  0  0  0  0  0  0  0  0  0  0
   -2.2070   -3.8620   -3.7000 C   0  0  0  0  0  0  0  0  0  0  0  0
   -1.6660   -6.2780   -4.0020 C   0  0  0  0  0  0  0  0  0  0  0  0
   -1.2480   -4.9620   -3.3550 C   0  0  0  0  0  0  0  0  0  0  0  0
 20 19  1  0
 18 20  1  0
 17 18  1  0
 14 17  1  0
 15 14  1  0
 16 15  1  0
 13 14  1  0
  1 13  1  0
  2  1  2  0
  3  1  1  0
  4  3  2  0
  5  4  1  0
  6  5  1  0
  7  6  2  0
  8  7  1  0
 11  8  1  0
 12 11  1  0
  9  8  2  0
 10  9  1  0
 10  5  2  0
M  END
> <structure>
s2_esm2_control

> <pose>
9

> <is_reference>
0

> <rmsd_to_reference_A>
8.506

> <vina_score>
-4.5

> <minimizedAffinity>
-4.52966

> <CNNscore>
0.5474749207

> <CNNaffinity>
4.3405222893

> <CNN_VS>
2.3763270378

> <CNNaffinity_variance>
0.4096107483

$$$$
