s3_orig_f12_pose0_reference


 20 20  0  0  0  0  0  0  0  0999 V2000
   -3.5670   -2.7930    0.6200 C   0  0  0  0  0  0  0  0  0  0  0  0
   -3.6080   -3.5010   -0.3530 O   0  0  0  0  0  0  0  0  0  0  0  0
   -2.4560   -2.7870    1.6000 C   0  0  0  0  0  0  0  0  0  0  0  0
   -1.3970   -3.5820    1.4700 C   0  0  0  0  0  0  0  0  0  0  0  0
   -0.3030   -3.6910    2.4680 C   0  0  0  0  0  0  0  0  0  0  0  0
    0.5770   -4.7580    2.3950 C   0  0  0  0  0  0  0  0  0  0  0  0
    1.5600   -4.9300    3.3630 C   0  0  0  0  0  0  0  0  0  0  0  0
    1.7180   -4.0100    4.3790 C   0  0  0  0  0  0  0  0  0  0  0  0
    0.8790   -2.9280    4.4170 C   0  0  0  0  0  0  0  0  0  0  0  0
   -0.1290   -2.7680    3.4670 C   0  0  0  0  0  0  0  0  0  0  0  0
    2.6900   -4.1310    5.3510 O   0  0  0  0  0  0  0  0  0  0  0  0
    3.0940   -5.4370    5.7180 C   0  0  0  0  0  0  0  0  0  0  0  0
   -4.5270   -2.0420    0.8410 O   0  0  0  0  0  0  0  0  0  0  0  0
   -5.6820   -1.4080    0.7810 C   0  0  0  0  0  0  0  0  0  0  0  0
   -5.9070   -0.8600   -0.6160 C   0  0  0  0  0  0  0  0  0  0  0  0
   -7.2600   -0.1840   -0.8080 C   0  0  0  0  0  0  0  0  0  0  0  0
   -6.8400   -2.3090    1.1800 C   0  0  0  0  0  0  0  0  0  0  0  0
   -6.5720   -3.1960    2.3510 C   0  0  0  0  0  0  0  0  0  0  0  0
   -7.5240   -4.4420    4.2970 C   0  0  0  0  0  0  0  0  0  0  0  0
   -7.8180   -3.5170    3.1360 C   0  0  0  0  0  0  0  0  0  0  0  0
 20 19  1  0
 18 20  1  0
 17 18  1  0
 14 17  1  0
 15 14  1  0
 16 15  1  0
 13 14  1  0
  1 13  1  0
  2  1  2  0
  3  1  1  0
  4  3  2  0
  5  4  1  0
  6  5  1  0
  7  6  2  0
  8  7  1  0
 11  8  1  0
 12 11  1  0
  9  8  2  0
 10  9  1  0
 10  5  2  0
M  END
> <structure>
s3_orig_f12

> <pose>
0

> <is_reference>
1

> <rmsd_to_reference_A>
0.000

> <vina_score>


> <minimizedAffinity>
-3.28865

> <CNNscore>
0.6886472106

> <CNNaffinity>
4.8505320549

> <CNN_VS>
3.3403053284

> <CNNaffinity_variance>
0.0079885097

$$$$
s3_orig_f12_pose1


 20 20  0  0  0  0  0  0  0  0999 V2000
   -7.7130   -3.4680    2.8570 C   0  0  0  0  0  0  0  0  0  0  0  0
   -8.3560   -3.8950    3.7810 O   0  0  0  0  0  0  0  0  0  0  0  0
   -6.2500   -3.6480    2.7070 C   0  0  0  0  0  0  0  0  0  0  0  0
   -5.3820   -2.7140    3.0900 C   0  0  0  0  0  0  0  0  0  0  0  0
   -3.9150   -2.7950    2.8760 C   0  0  0  0  0  0  0  0  0  0  0  0
   -3.0610   -2.2850    3.8390 C   0  0  0  0  0  0  0  0  0  0  0  0
   -1.6870   -2.2730    3.6290 C   0  0  0  0  0  0  0  0  0  0  0  0
   -1.1430   -2.8240    2.4870 C   0  0  0  0  0  0  0  0  0  0  0  0
   -1.9890   -3.3750    1.5610 C   0  0  0  0  0  0  0  0  0  0  0  0
   -3.3700   -3.3600    1.7520 C   0  0  0  0  0  0  0  0  0  0  0  0
    0.2150   -2.8500    2.2440 O   0  0  0  0  0  0  0  0  0  0  0  0
    1.0810   -2.9280    3.3610 C   0  0  0  0  0  0  0  0  0  0  0  0
   -8.2990   -2.8070    1.9890 O   0  0  0  0  0  0  0  0  0  0  0  0
   -8.5980   -2.1230    0.9010 C   0  0  0  0  0  0  0  0  0  0  0  0
   -8.5280   -0.6340    1.1840 C   0  0  0  0  0  0  0  0  0  0  0  0
   -9.6040    0.1830    0.4780 C   0  0  0  0  0  0  0  0  0  0  0  0
   -7.6790   -2.4780   -0.2570 C   0  0  0  0  0  0  0  0  0  0  0  0
   -6.8380   -1.3510   -0.7600 C   0  0  0  0  0  0  0  0  0  0  0  0
   -4.7910   -0.3190    0.2360 C   0  0  0  0  0  0  0  0  0  0  0  0
   -5.3740   -1.5350   -0.4520 C   0  0  0  0  0  0  0  0  0  0  0  0
 20 19  1  0
 18 20  1  0
 17 18  1  0
 14 17  1  0
 15 14  1  0
 16 15  1  0
 13 14  1  0
  1 13  1  0
  2  1  2  0
  3  1  1  0
  4  3  2  0
  5  4  1  0
  6  5  1  0
  7  6  2  0
  8  7  1  0
 11  8  1  0
 12 11  1  0
  9  8  2  0
 10  9  1  0
 10  5  2  0
M  END
> <structure>
s3_orig_f12

> <pose>
1

> <is_reference>
0

> <rmsd_to_reference_A>
4.085

> <vina_score>
-7.3

> <minimizedAffinity>
-7.30935

> <CNNscore>
0.4005227983

> <CNNaffinity>
5.0101642609

> <CNN_VS>
2.0066850185

> <CNNaffinity_variance>
0.0779762343

$$$$
s3_orig_f12_pose2


 20 20  0  0  0  0  0  0  0  0999 V2000
   -2.2080   -2.1640    3.7810 C   0  0  0  0  0  0  0  0  0  0  0  0
   -1.8220   -1.8000    4.8620 O   0  0  0  0  0  0  0  0  0  0  0  0
   -3.6050   -2.0310    3.3070 C   0  0  0  0  0  0  0  0  0  0  0  0
   -4.5270   -2.9570    3.5600 C   0  0  0  0  0  0  0  0  0  0  0  0
   -5.9130   -2.9270    3.0290 C   0  0  0  0  0  0  0  0  0  0  0  0
   -6.2930   -1.8990    2.1830 C   0  0  0  0  0  0  0  0  0  0  0  0
   -7.6050   -1.8000    1.7360 C   0  0  0  0  0  0  0  0  0  0  0  0
   -8.5400   -2.7570    2.0760 C   0  0  0  0  0  0  0  0  0  0  0  0
   -8.1470   -3.8010    2.8700 C   0  0  0  0  0  0  0  0  0  0  0  0
   -6.8390   -3.8870    3.3470 C   0  0  0  0  0  0  0  0  0  0  0  0
   -9.8490   -2.7080    1.6420 O   0  0  0  0  0  0  0  0  0  0  0  0
  -10.7400   -3.6930    2.1310 C   0  0  0  0  0  0  0  0  0  0  0  0
   -1.3980   -2.7160    3.0240 O   0  0  0  0  0  0  0  0  0  0  0  0
   -0.4760   -2.9600    2.1130 C   0  0  0  0  0  0  0  0  0  0  0  0
    0.7630   -3.5460    2.7660 C   0  0  0  0  0  0  0  0  0  0  0  0
    1.4100   -2.6320    3.8010 C   0  0  0  0  0  0  0  0  0  0  0  0
   -0.9870   -3.8990    1.0310 C   0  0  0  0  0  0  0  0  0  0  0  0
   -1.6840   -3.2270   -0.1060 C   0  0  0  0  0  0  0  0  0  0  0  0
   -3.7550   -1.8280   -0.1200 C   0  0  0  0  0  0  0  0  0  0  0  0
   -3.1830   -3.2190    0.0520 C   0  0  0  0  0  0  0  0  0  0  0  0
 20 19  1  0
 18 20  1  0
 17 18  1  0
 14 17  1  0
 15 14  1  0
 16 15  1  0
 13 14  1  0
  1 13  1  0
  2  1  2  0
  3  1  1  0
  4  3  2  0
  5  4  1  0
  6  5  1  0
  7  6  2  0
  8  7  1  0
 11  8  1  0
 12 11  1  0
  9  8  2  0
 10  9  1  0
 10  5  2  0
M  END
> <structure>
s3_orig_f12

> <pose>
2

> <is_reference>
0

> <rmsd_to_reference_A>
7.788

> <vina_score>
-6.6

> <minimizedAffinity>
-6.78513

> <CNNscore>
0.3362884820

> <CNNaffinity>
4.2542481422

> <CNN_VS>
1.4306546450

> <CNNaffinity_variance>
0.7259159684

$$$$
s3_orig_f12_pose3


 20 20  0  0  0  0  0  0  0  0999 V2000
   -3.8010   -2.3180    3.1970 C   0  0  0  0  0  0  0  0  0  0  0  0
   -2.8940   -2.3430    3.9880 O   0  0  0  0  0  0  0  0  0  0  0  0
   -5.0960   -3.0120    3.3920 C   0  0  0  0  0  0  0  0  0  0  0  0
   -6.1950   -2.6490    2.7360 C   0  0  0  0  0  0  0  0  0  0  0  0
   -7.5390   -3.2390    2.9610 C   0  0  0  0  0  0  0  0  0  0  0  0
   -7.7390   -4.0720    4.0500 C   0  0  0  0  0  0  0  0  0  0  0  0
   -8.9630   -4.7040    4.2390 C   0  0  0  0  0  0  0  0  0  0  0  0
  -10.0200   -4.4660    3.3840 C   0  0  0  0  0  0  0  0  0  0  0  0
   -9.8320   -3.6010    2.3390 C   0  0  0  0  0  0  0  0  0  0  0  0
   -8.5970   -2.9900    2.1260 C   0  0  0  0  0  0  0  0  0  0  0  0
  -11.2560   -5.0570    3.5430 O   0  0  0  0  0  0  0  0  0  0  0  0
  -11.3720   -6.0930    4.5010 C   0  0  0  0  0  0  0  0  0  0  0  0
   -3.6370   -1.7030    2.1350 O   0  0  0  0  0  0  0  0  0  0  0  0
   -3.4440   -1.3850    0.8690 C   0  0  0  0  0  0  0  0  0  0  0  0
   -3.3310   -2.6410    0.0250 C   0  0  0  0  0  0  0  0  0  0  0  0
   -2.0860   -3.4730    0.3120 C   0  0  0  0  0  0  0  0  0  0  0  0
   -4.5570   -0.4980    0.3360 C   0  0  0  0  0  0  0  0  0  0  0  0
   -5.6500   -1.2210   -0.3800 C   0  0  0  0  0  0  0  0  0  0  0  0
   -7.9270   -1.0060   -1.3880 C   0  0  0  0  0  0  0  0  0  0  0  0
   -6.9580   -0.4710   -0.3560 C   0  0  0  0  0  0  0  0  0  0  0  0
 20 19  1  0
 18 20  1  0
 17 18  1  0
 14 17  1  0
 15 14  1  0
 16 15  1  0
 13 14  1  0
  1 13  1  0
  2  1  2  0
  3  1  1  0
  4  3  2  0
  5  4  1  0
  6  5  1  0
  7  6  2  0
  8  7  1  0
 11  8  1  0
 12 11  1  0
  9  8  2  0
 10  9  1  0
 10  5  2  0
M  END
> <structure>
s3_orig_f12

> <pose>
3

> <is_reference>
0

> <rmsd_to_reference_A>
7.702

> <vina_score>
-6.5

> <minimizedAffinity>
-6.57895

> <CNNscore>
0.1574833244

> <CNNaffinity>
3.9309666157

> <CNN_VS>
0.6190617085

> <CNNaffinity_variance>
0.5931169987

$$$$
s3_orig_f12_pose4


 20 20  0  0  0  0  0  0  0  0999 V2000
   -7.6780   -3.4890    2.6950 C   0  0  0  0  0  0  0  0  0  0  0  0
   -8.3150   -3.8140    3.6630 O   0  0  0  0  0  0  0  0  0  0  0  0
   -6.2080   -3.6270    2.5800 C   0  0  0  0  0  0  0  0  0  0  0  0
   -5.3790   -2.6420    2.9170 C   0  0  0  0  0  0  0  0  0  0  0  0
   -3.9060   -2.6850    2.7320 C   0  0  0  0  0  0  0  0  0  0  0  0
   -3.3840   -3.2650    1.5880 C   0  0  0  0  0  0  0  0  0  0  0  0
   -2.0090   -3.3920    1.4260 C   0  0  0  0  0  0  0  0  0  0  0  0
   -1.1380   -2.8900    2.3700 C   0  0  0  0  0  0  0  0  0  0  0  0
   -1.6590   -2.2710    3.4750 C   0  0  0  0  0  0  0  0  0  0  0  0
   -3.0370   -2.1690    3.6580 C   0  0  0  0  0  0  0  0  0  0  0  0
    0.2330   -2.9790    2.2430 O   0  0  0  0  0  0  0  0  0  0  0  0
    1.0080   -2.9280    3.4270 C   0  0  0  0  0  0  0  0  0  0  0  0
   -8.2800   -2.9760    1.7410 O   0  0  0  0  0  0  0  0  0  0  0  0
   -8.5960   -2.2730    0.6700 C   0  0  0  0  0  0  0  0  0  0  0  0
   -7.9390   -0.9070    0.7280 C   0  0  0  0  0  0  0  0  0  0  0  0
   -6.7390   -0.7540   -0.2010 C   0  0  0  0  0  0  0  0  0  0  0  0
   -8.1970   -2.9900   -0.6100 C   0  0  0  0  0  0  0  0  0  0  0  0
   -9.2780   -3.8090   -1.2350 C   0  0  0  0  0  0  0  0  0  0  0  0
  -11.4360   -4.5660   -0.2270 C   0  0  0  0  0  0  0  0  0  0  0  0
  -10.6560   -3.3950   -0.7850 C   0  0  0  0  0  0  0  0  0  0  0  0
 20 19  1  0
 18 20  1  0
 17 18  1  0
 14 17  1  0
 15 14  1  0
 16 15  1  0
 13 14  1  0
  1 13  1  0
  2  1  2  0
  3  1  1  0
  4  3  2  0
  5  4  1  0
  6  5  1  0
  7  6  2  0
  8  7  1  0
 11  8  1  0
 12 11  1  0
  9  8  2  0
 10  9  1  0
 10  5  2  0
M  END
> <structure>
s3_orig_f12

> <pose>
4

> <is_reference>
0

> <rmsd_to_reference_A>
4.039

> <vina_score>
-6.4

> <minimizedAffinity>
-6.61597

> <CNNscore>
0.4651188254

> <CNNaffinity>
4.9285259247

> <CNN_VS>
2.2923502922

> <CNNaffinity_variance>
0.0442146771

$$$$
s3_orig_f12_pose5


 20 20  0  0  0  0  0  0  0  0999 V2000
   -5.8750   -1.3930    0.1250 C   0  0  0  0  0  0  0  0  0  0  0  0
   -6.2830   -0.4760   -0.5390 O   0  0  0  0  0  0  0  0  0  0  0  0
   -4.4660   -1.5450    0.5600 C   0  0  0  0  0  0  0  0  0  0  0  0
   -4.0140   -2.6720    1.1050 C   0  0  0  0  0  0  0  0  0  0  0  0
   -2.6430   -2.8490    1.6470 C   0  0  0  0  0  0  0  0  0  0  0  0
   -2.3130   -2.2620    2.8570 C   0  0  0  0  0  0  0  0  0  0  0  0
   -1.0150   -2.3420    3.3500 C   0  0  0  0  0  0  0  0  0  0  0  0
   -0.0480   -3.0590    2.6760 C   0  0  0  0  0  0  0  0  0  0  0  0
   -0.3930   -3.6830    1.5060 C   0  0  0  0  0  0  0  0  0  0  0  0
   -1.6850   -3.5780    0.9920 C   0  0  0  0  0  0  0  0  0  0  0  0
    1.2470   -3.1810    3.1360 O   0  0  0  0  0  0  0  0  0  0  0  0
    1.5730   -2.5460    4.3590 C   0  0  0  0  0  0  0  0  0  0  0  0
   -6.6690   -2.2890    0.4430 O   0  0  0  0  0  0  0  0  0  0  0  0
   -7.6230   -2.9930    1.0220 C   0  0  0  0  0  0  0  0  0  0  0  0
   -7.6770   -2.6790    2.5060 C   0  0  0  0  0  0  0  0  0  0  0  0
   -6.8950   -3.6560    3.3770 C   0  0  0  0  0  0  0  0  0  0  0  0
   -8.9790   -2.7350    0.3850 C   0  0  0  0  0  0  0  0  0  0  0  0
   -9.7350   -1.5820    0.9590 C   0  0  0  0  0  0  0  0  0  0  0  0
  -10.7560    0.5360    0.1120 C   0  0  0  0  0  0  0  0  0  0  0  0
   -9.4960   -0.2970    0.2090 C   0  0  0  0  0  0  0  0  0  0  0  0
 20 19  1  0
 18 20  1  0
 17 18  1  0
 14 17  1  0
 15 14  1  0
 16 15  1  0
 13 14  1  0
  1 13  1  0
  2  1  2  0
  3  1  1  0
  4  3  2  0
  5  4  1  0
  6  5  1  0
  7  6  2  0
  8  7  1  0
 11  8  1  0
 12 11  1  0
  9  8  2  0
 10  9  1  0
 10  5  2  0
M  END
> <structure>
s3_orig_f12

> <pose>
5

> <is_reference>
0

> <rmsd_to_reference_A>
3.548

> <vina_score>
-6.4

> <minimizedAffinity>
-6.70406

> <CNNscore>
0.7027720213

> <CNNaffinity>
4.9716563225

> <CNN_VS>
3.4939410686

> <CNNaffinity_variance>
0.0257966239

$$$$
s3_orig_f12_pose6


 20 20  0  0  0  0  0  0  0  0999 V2000
   -3.3820   -2.5760    0.3270 C   0  0  0  0  0  0  0  0  0  0  0  0
   -2.3710   -2.9020   -0.2400 O   0  0  0  0  0  0  0  0  0  0  0  0
   -4.6140   -2.1230   -0.3600 C   0  0  0  0  0  0  0  0  0  0  0  0
   -5.3510   -1.1170    0.1040 C   0  0  0  0  0  0  0  0  0  0  0  0
   -6.6430   -0.6840   -0.4850 C   0  0  0  0  0  0  0  0  0  0  0  0
   -7.3220   -1.5410   -1.3340 C   0  0  0  0  0  0  0  0  0  0  0  0
   -8.4930   -1.1320   -1.9640 C   0  0  0  0  0  0  0  0  0  0  0  0
   -9.0330    0.1120   -1.7080 C   0  0  0  0  0  0  0  0  0  0  0  0
   -8.3860    0.9360   -0.8260 C   0  0  0  0  0  0  0  0  0  0  0  0
   -7.1950    0.5430   -0.2170 C   0  0  0  0  0  0  0  0  0  0  0  0
  -10.2000    0.5540   -2.2960 O   0  0  0  0  0  0  0  0  0  0  0  0
  -11.2900   -0.3480   -2.3540 C   0  0  0  0  0  0  0  0  0  0  0  0
   -3.3900   -2.5850    1.5660 O   0  0  0  0  0  0  0  0  0  0  0  0
   -3.5300   -2.9300    2.8310 C   0  0  0  0  0  0  0  0  0  0  0  0
   -2.5590   -2.1490    3.6970 C   0  0  0  0  0  0  0  0  0  0  0  0
   -1.0940   -2.3600    3.3350 C   0  0  0  0  0  0  0  0  0  0  0  0
   -4.9530   -2.7160    3.3200 C   0  0  0  0  0  0  0  0  0  0  0  0
   -5.9520   -3.6960    2.7980 C   0  0  0  0  0  0  0  0  0  0  0  0
   -8.1750   -2.7610    2.1430 C   0  0  0  0  0  0  0  0  0  0  0  0
   -7.3570   -3.3920    3.2490 C   0  0  0  0  0  0  0  0  0  0  0  0
 20 19  1  0
 18 20  1  0
 17 18  1  0
 14 17  1  0
 15 14  1  0
 16 15  1  0
 13 14  1  0
  1 13  1  0
  2  1  2  0
  3  1  1  0
  4  3  2  0
  5  4  1  0
  6  5  1  0
  7  6  2  0
  8  7  1  0
 11  8  1  0
 12 11  1  0
  9  8  2  0
 10  9  1  0
 10  5  2  0
M  END
> <structure>
s3_orig_f12

> <pose>
6

> <is_reference>
0

> <rmsd_to_reference_A>
8.252

> <vina_score>
-6.3

> <minimizedAffinity>
-6.32263

> <CNNscore>
0.4629780948

> <CNNaffinity>
4.9321179390

> <CNN_VS>
2.2834625244

> <CNNaffinity_variance>
0.0141747817

$$$$
s3_orig_f12_pose7


 20 20  0  0  0  0  0  0  0  0999 V2000
   -4.3550   -1.1100    0.6460 C   0  0  0  0  0  0  0  0  0  0  0  0
   -3.7340   -0.1000    0.8570 O   0  0  0  0  0  0  0  0  0  0  0  0
   -5.4950   -1.2070   -0.2950 C   0  0  0  0  0  0  0  0  0  0  0  0
   -6.5130   -0.3500   -0.2590 C   0  0  0  0  0  0  0  0  0  0  0  0
   -7.7270   -0.4540   -1.1070 C   0  0  0  0  0  0  0  0  0  0  0  0
   -7.9510   -1.6150   -1.8290 C   0  0  0  0  0  0  0  0  0  0  0  0
   -9.0350   -1.7090   -2.6950 C   0  0  0  0  0  0  0  0  0  0  0  0
   -9.9420   -0.6750   -2.8050 C   0  0  0  0  0  0  0  0  0  0  0  0
   -9.7450    0.4500   -2.0490 C   0  0  0  0  0  0  0  0  0  0  0  0
   -8.6420    0.5620   -1.2040 C   0  0  0  0  0  0  0  0  0  0  0  0
  -11.0410   -0.7320   -3.6380 O   0  0  0  0  0  0  0  0  0  0  0  0
  -11.2490   -1.9240   -4.3720 C   0  0  0  0  0  0  0  0  0  0  0  0
   -4.0470   -2.1310    1.2760 O   0  0  0  0  0  0  0  0  0  0  0  0
   -3.9900   -3.1060    2.1630 C   0  0  0  0  0  0  0  0  0  0  0  0
   -3.6330   -2.5500    3.5300 C   0  0  0  0  0  0  0  0  0  0  0  0
   -2.1770   -2.1190    3.6640 C   0  0  0  0  0  0  0  0  0  0  0  0
   -5.2990   -3.8750    2.2400 C   0  0  0  0  0  0  0  0  0  0  0  0
   -6.2590   -3.3810    3.2720 C   0  0  0  0  0  0  0  0  0  0  0  0
   -8.1780   -3.0120    1.7130 C   0  0  0  0  0  0  0  0  0  0  0  0
   -7.2430   -2.3810    2.7210 C   0  0  0  0  0  0  0  0  0  0  0  0
 20 19  1  0
 18 20  1  0
 17 18  1  0
 14 17  1  0
 15 14  1  0
 16 15  1  0
 13 14  1  0
  1 13  1  0
  2  1  2  0
  3  1  1  0
  4  3  2  0
  5  4  1  0
  6  5  1  0
  7  6  2  0
  8  7  1  0
 11  8  1  0
 12 11  1  0
  9  8  2  0
 10  9  1  0
 10  5  2  0
M  END
> <structure>
s3_orig_f12

> <pose>
7

> <is_reference>
0

> <rmsd_to_reference_A>
8.892

> <vina_score>
-6.3

> <minimizedAffinity>
-6.27441

> <CNNscore>
0.1617294848

> <CNNaffinity>
4.3672041893

> <CNN_VS>
0.7063056827

> <CNNaffinity_variance>
0.1134473011

$$$$
s3_orig_f12_pose8


 20 20  0  0  0  0  0  0  0  0999 V2000
   -6.8500   -1.3140   -0.1960 C   0  0  0  0  0  0  0  0  0  0  0  0
   -7.0170   -1.2490   -1.3860 O   0  0  0  0  0  0  0  0  0  0  0  0
   -5.5230   -1.2760    0.4620 C   0  0  0  0  0  0  0  0  0  0  0  0
   -4.9240   -2.3780    0.9070 C   0  0  0  0  0  0  0  0  0  0  0  0
   -3.6440   -2.3910    1.6600 C   0  0  0  0  0  0  0  0  0  0  0  0
   -2.5430   -3.0270    1.1120 C   0  0  0  0  0  0  0  0  0  0  0  0
   -1.3560   -3.1260    1.8290 C   0  0  0  0  0  0  0  0  0  0  0  0
   -1.2320   -2.5410    3.0720 C   0  0  0  0  0  0  0  0  0  0  0  0
   -2.3070   -1.8670    3.5870 C   0  0  0  0  0  0  0  0  0  0  0  0
   -3.5100   -1.7930    2.8860 C   0  0  0  0  0  0  0  0  0  0  0  0
   -0.0680   -2.5990    3.8120 O   0  0  0  0  0  0  0  0  0  0  0  0
    1.1170   -2.9900    3.1430 C   0  0  0  0  0  0  0  0  0  0  0  0
   -7.8430   -1.4550    0.5310 O   0  0  0  0  0  0  0  0  0  0  0  0
   -8.6670   -1.8030    1.5000 C   0  0  0  0  0  0  0  0  0  0  0  0
  -10.1000   -1.7790    1.0040 C   0  0  0  0  0  0  0  0  0  0  0  0
  -10.8210   -3.1180    1.1180 C   0  0  0  0  0  0  0  0  0  0  0  0
   -8.3310   -3.1780    2.0570 C   0  0  0  0  0  0  0  0  0  0  0  0
   -7.5090   -3.1670    3.3030 C   0  0  0  0  0  0  0  0  0  0  0  0
   -8.8980   -4.6220    4.7860 C   0  0  0  0  0  0  0  0  0  0  0  0
   -7.5800   -4.4690    4.0590 C   0  0  0  0  0  0  0  0  0  0  0  0
 20 19  1  0
 18 20  1  0
 17 18  1  0
 14 17  1  0
 15 14  1  0
 16 15  1  0
 13 14  1  0
  1 13  1  0
  2  1  2  0
  3  1  1  0
  4  3  2  0
  5  4  1  0
  6  5  1  0
  7  6  2  0
  8  7  1  0
 11  8  1  0
 12 11  1  0
  9  8  2  0
 10  9  1  0
 10  5  2  0
M  END
> <structure>
s3_orig_f12

> <pose>
8

> <is_reference>
0

> <rmsd_to_reference_A>
3.487

> <vina_score>
-6.2

> <minimizedAffinity>
-6.79760

> <CNNscore>
0.4889363050

> <CNNaffinity>
4.7239079475

> <CNN_VS>
2.3096899986

> <CNNaffinity_variance>
0.2001086026

$$$$
s3_orig_f12_pose9


 20 20  0  0  0  0  0  0  0  0999 V2000
   -6.9960   -2.8300    1.0680 C   0  0  0  0  0  0  0  0  0  0  0  0
   -7.7810   -3.2460    1.8810 O   0  0  0  0  0  0  0  0  0  0  0  0
   -5.5270   -2.9890    1.1720 C   0  0  0  0  0  0  0  0  0  0  0  0
   -4.8700   -2.7440    2.3030 C   0  0  0  0  0  0  0  0  0  0  0  0
   -3.3920   -2.7900    2.4400 C   0  0  0  0  0  0  0  0  0  0  0  0
   -2.8020   -2.2850    3.5860 C   0  0  0  0  0  0  0  0  0  0  0  0
   -1.4170   -2.2400    3.7070 C   0  0  0  0  0  0  0  0  0  0  0  0
   -0.6060   -2.7540    2.7170 C   0  0  0  0  0  0  0  0  0  0  0  0
   -1.1960   -3.3020    1.6080 C   0  0  0  0  0  0  0  0  0  0  0  0
   -2.5830   -3.3190    1.4680 C   0  0  0  0  0  0  0  0  0  0  0  0
    0.7710   -2.7470    2.8020 O   0  0  0  0  0  0  0  0  0  0  0  0
    1.3500   -2.5730    4.0810 C   0  0  0  0  0  0  0  0  0  0  0  0
   -7.4350   -2.1990    0.0970 O   0  0  0  0  0  0  0  0  0  0  0  0
   -7.5800   -1.3610   -0.9110 C   0  0  0  0  0  0  0  0  0  0  0  0
   -8.7870   -1.7470   -1.7450 C   0  0  0  0  0  0  0  0  0  0  0  0
   -9.2080   -3.2040   -1.5900 C   0  0  0  0  0  0  0  0  0  0  0  0
   -7.7160    0.0760   -0.4330 C   0  0  0  0  0  0  0  0  0  0  0  0
   -8.9540    0.3640    0.3510 C   0  0  0  0  0  0  0  0  0  0  0  0
   -9.2750    2.2190   -1.2920 C   0  0  0  0  0  0  0  0  0  0  0  0
   -9.4650    1.7660    0.1390 C   0  0  0  0  0  0  0  0  0  0  0  0
 20 19  1  0
 18 20  1  0
 17 18  1  0
 14 17  1  0
 15 14  1  0
 16 15  1  0
 13 14  1  0
  1 13  1  0
  2  1  2  0
  3  1  1  0
  4  3  2  0
  5  4  1  0
  6  5  1  0
  7  6  2  0
  8  7  1  0
 11  8  1  0
 12 11  1  0
  9  8  2  0
 10  9  1  0
 10  5  2  0
M  END
> <structure>
s3_orig_f12

> <pose>
9

> <is_reference>
0

> <rmsd_to_reference_A>
4.078

> <vina_score>
-6.1

> <minimizedAffinity>
-6.52887

> <CNNscore>
0.7334129810

> <CNNaffinity>
5.1655879021

> <CNN_VS>
3.7885091305

> <CNNaffinity_variance>
0.0155717125

$$$$
