bg33_2_ligand
     RDKit          3D

 44 44  0  0  0  0  0  0  0  0999 V2000
    1.8193   -7.0210   13.9517 C   0  0  0  0  0  0  0  0  0  0  0  0
    0.3312   -7.1021   14.3361 C   0  0  0  0  0  0  0  0  0  0  0  0
   -0.3913   -5.8663   13.8652 C   0  0  0  0  0  0  0  0  0  0  0  0
   -1.8815   -5.8698   14.2462 C   0  0  0  0  0  0  0  0  0  0  0  0
   -2.5152   -4.5350   13.9770 C   0  0  1  0  0  0  0  0  0  0  0  0
   -1.7702   -3.4834   14.7747 C   0  0  0  0  0  0  0  0  0  0  0  0
   -2.2588   -3.4887   16.2763 C   0  0  0  0  0  0  0  0  0  0  0  0
   -2.5663   -4.2632   12.5399 O   0  0  0  0  0  0  0  0  0  0  0  0
   -3.5572   -4.9306   11.7639 C   0  0  0  0  0  0  0  0  0  0  0  0
   -4.3389   -5.6667   12.3240 O   0  0  0  0  0  0  0  0  0  0  0  0
   -3.6159   -4.7988   10.2708 C   0  0  0  0  0  0  0  0  0  0  0  0
   -2.9641   -3.8285    9.5536 C   0  0  0  0  0  0  0  0  0  0  0  0
   -2.9675   -3.8683    8.0447 C   0  0  0  0  0  0  0  0  0  0  0  0
   -3.3617   -5.0099    7.3764 C   0  0  0  0  0  0  0  0  0  0  0  0
   -3.3248   -5.0029    5.9847 C   0  0  0  0  0  0  0  0  0  0  0  0
   -2.9088   -3.9045    5.2443 C   0  0  0  0  0  0  0  0  0  0  0  0
   -2.8533   -3.9455    3.8549 O   0  0  0  0  0  0  0  0  0  0  0  0
   -4.0459   -4.4080    3.2074 C   0  0  0  0  0  0  0  0  0  0  0  0
   -2.5013   -2.7931    5.9413 C   0  0  0  0  0  0  0  0  0  0  0  0
   -2.5326   -2.7617    7.3419 C   0  0  0  0  0  0  0  0  0  0  0  0
    1.9169   -6.5566   12.9593 H   0  0  0  0  0  0  0  0  0  0  0  0
    2.3575   -6.4144   14.6950 H   0  0  0  0  0  0  0  0  0  0  0  0
    2.2472   -8.0341   13.9262 H   0  0  0  0  0  0  0  0  0  0  0  0
   -0.1188   -7.9887   13.8654 H   0  0  0  0  0  0  0  0  0  0  0  0
    0.2446   -7.1760   15.4302 H   0  0  0  0  0  0  0  0  0  0  0  0
    0.0859   -4.9851   14.3187 H   0  0  0  0  0  0  0  0  0  0  0  0
   -0.3287   -5.8422   12.7673 H   0  0  0  0  0  0  0  0  0  0  0  0
   -2.4008   -6.6389   13.6556 H   0  0  0  0  0  0  0  0  0  0  0  0
   -1.9650   -6.0838   15.3219 H   0  0  0  0  0  0  0  0  0  0  0  0
   -3.5645   -4.5239   14.3071 H   0  0  0  0  0  0  0  0  0  0  0  0
   -0.6922   -3.6997   14.7428 H   0  0  0  0  0  0  0  0  0  0  0  0
   -1.9685   -2.4941   14.3367 H   0  0  0  0  0  0  0  0  0  0  0  0
   -3.2248   -2.9677   16.3495 H   0  0  0  0  0  0  0  0  0  0  0  0
   -2.3753   -4.5271   16.6204 H   0  0  0  0  0  0  0  0  0  0  0  0
   -1.5167   -2.9752   16.9052 H   0  0  0  0  0  0  0  0  0  0  0  0
   -4.2220   -5.5288    9.7142 H   0  0  0  0  0  0  0  0  0  0  0  0
   -2.4371   -3.0188   10.0796 H   0  0  0  0  0  0  0  0  0  0  0  0
   -3.6959   -5.9009    7.9283 H   0  0  0  0  0  0  0  0  0  0  0  0
   -3.6396   -5.9093    5.4468 H   0  0  0  0  0  0  0  0  0  0  0  0
   -4.2968   -3.7334    2.3756 H   0  0  0  0  0  0  0  0  0  0  0  0
   -3.8817   -5.4240    2.8187 H   0  0  0  0  0  0  0  0  0  0  0  0
   -4.8743   -4.4217    3.9310 H   0  0  0  0  0  0  0  0  0  0  0  0
   -2.1438   -1.9112    5.3896 H   0  0  0  0  0  0  0  0  0  0  0  0
   -2.2116   -1.8578    7.8803 H   0  0  0  0  0  0  0  0  0  0  0  0
  2  1  1  0
  3  2  1  0
  4  3  1  0
  5  4  1  0
  6  5  1  0
  7  6  1  0
  8  5  1  0
  9  8  1  0
 10  9  2  0
 11  9  1  0
 12 11  2  3
 13 12  1  0
 14 13  1  0
 15 14  2  0
 16 15  1  0
 17 16  1  0
 18 17  1  0
 19 16  2  0
 20 19  1  0
 20 13  2  0
  1 21  1  0
  1 22  1  0
  1 23  1  0
  2 24  1  0
  2 25  1  0
  3 26  1  0
  3 27  1  0
  4 28  1  0
  4 29  1  0
  5 30  1  1
  6 31  1  0
  6 32  1  0
  7 33  1  0
  7 34  1  0
  7 35  1  0
 11 36  1  0
 12 37  1  0
 14 38  1  0
 15 39  1  0
 18 40  1  0
 18 41  1  0
 18 42  1  0
 19 43  1  0
 20 44  1  0
M  END
$$$$
