bg33_2_ligand
 OpenBabel10092621143D

 20 20  0  0  1  0  0  0  0  0999 V2000
    3.4030    0.4910   13.0660 C   0  0  0  0  0  0  0  0  0  0  0  0
    3.5900   -0.6560   13.4080 O   0  0  0  0  0  0  0  0  0  0  0  0
    3.0100    1.5070   14.0980 C   0  0  0  0  0  3  0  0  0  0  0  0
    3.7760    1.8430   15.1830 C   0  0  0  0  0  3  0  0  0  0  0  0
    3.3610    2.9810   16.0840 C   0  0  0  0  0  0  0  0  0  0  0  0
    2.4520    3.9240   15.6450 C   0  0  0  0  0  3  0  0  0  0  0  0
    2.1200    4.9670   16.5040 C   0  0  0  0  0  3  0  0  0  0  0  0
    2.6600    5.1020   17.7760 C   0  0  0  0  0  0  0  0  0  0  0  0
    3.5790    4.1590   18.1730 C   0  0  0  0  0  3  0  0  0  0  0  0
    3.9310    3.0910   17.3360 C   0  0  0  0  0  3  0  0  0  0  0  0
    2.3300    6.1760   18.5940 O   0  0  0  0  0  0  0  0  0  0  0  0
    0.9890    6.1690   19.1040 C   0  0  0  0  0  1  0  0  0  0  0  0
    3.5020    0.8210   11.6840 O   0  0  0  0  0  0  0  0  0  0  0  0
    4.7260    1.4740   11.2160 C   0  0  2  0  0  3  0  0  0  0  0  0
    5.9610    1.1070   12.0150 C   0  0  0  0  0  2  0  0  0  0  0  0
    6.7110   -0.1040   11.3340 C   0  0  0  0  0  1  0  0  0  0  0  0
    4.5760    2.9680   11.2360 C   0  0  0  0  0  2  0  0  0  0  0  0
    5.5050    3.6070   12.2820 C   0  0  0  0  0  2  0  0  0  0  0  0
    5.6920    5.1760   14.2130 C   0  0  0  0  0  1  0  0  0  0  0  0
    4.8800    4.7980   12.9620 C   0  0  0  0  0  2  0  0  0  0  0  0
  1  2  2  0  0  0  0
  1  3  1  0  0  0  0
  3  4  2  0  0  0  0
  4  5  1  0  0  0  0
  5 10  1  0  0  0  0
  6  5  2  0  0  0  0
  6  7  1  0  0  0  0
  7  8  2  0  0  0  0
  8  9  1  0  0  0  0
  8 11  1  0  0  0  0
 10  9  2  0  0  0  0
 11 12  1  0  0  0  0
 13  1  1  0  0  0  0
 14 17  1  1  0  0  0
 14 13  1  0  0  0  0
 14 15  1  0  0  0  0
 16 15  1  0  0  0  0
 17 18  1  0  0  0  0
 18 20  1  0  0  0  0
 20 19  1  0  0  0  0
M  END
>  <MODEL>
1

>  <REMARK>
 VINA RESULT:      -2.9      0.000      0.000
  Name = bg33_2_ligand
  12 active torsions:
  status: ('A' for Active; 'I' for Inactive)
    1  A    between atoms: C_1  and  C_2
    2  A    between atoms: C_2  and  C_3
    3  A    between atoms: C_3  and  C_4
    4  A    between atoms: C_4  and  C_5
    5  A    between atoms: C_5  and  C_6
    6  A    between atoms: C_5  and  O_8
    7  A    between atoms: C_6  and  C_7
    8  A    between atoms: O_8  and  C_9
    9  A    between atoms: C_9  and  C_11
   10  A    between atoms: C_12  and  C_13
   11  A    between atoms: C_16  and  O_17
   12  A    between atoms: O_17  and  C_18
                            x       y       z     vdW  Elec       q    Type
                         _______ _______ _______ _____ _____    ______ ____

>  <TORSDO>
F 9

$$$$
bg33_2_ligand
 OpenBabel10092621143D

 20 20  0  0  1  0  0  0  0  0999 V2000
    2.2230    5.1200   16.8090 C   0  0  0  0  0  0  0  0  0  0  0  0
    1.2360    5.8210   16.7690 O   0  0  0  0  0  0  0  0  0  0  0  0
    2.4270    4.0810   15.7470 C   0  0  0  0  0  3  0  0  0  0  0  0
    3.6490    3.7320   15.2300 C   0  0  0  0  0  3  0  0  0  0  0  0
    3.7650    2.5730   14.2710 C   0  0  0  0  0  0  0  0  0  0  0  0
    4.6760    2.6130   13.2330 C   0  0  0  0  0  3  0  0  0  0  0  0
    4.7290    1.5290   12.3630 C   0  0  0  0  0  3  0  0  0  0  0  0
    3.9090    0.4150   12.4890 C   0  0  0  0  0  0  0  0  0  0  0  0
    2.9990    0.4170   13.5190 C   0  0  0  0  0  3  0  0  0  0  0  0
    2.9240    1.4890   14.4190 C   0  0  0  0  0  3  0  0  0  0  0  0
    3.9670   -0.6350   11.5800 O   0  0  0  0  0  0  0  0  0  0  0  0
    4.9420   -0.4920   10.5390 C   0  0  0  0  0  1  0  0  0  0  0  0
    3.1260    5.2670   17.9010 O   0  0  0  0  0  0  0  0  0  0  0  0
    2.8480    4.5240   19.1310 C   0  0  2  0  0  3  0  0  0  0  0  0
    2.1870    5.3530   20.2140 C   0  0  0  0  0  2  0  0  0  0  0  0
    0.6300    5.0960   20.2250 C   0  0  0  0  0  1  0  0  0  0  0  0
    4.1080    3.9300   19.6930 C   0  0  0  0  0  2  0  0  0  0  0  0
    4.8260    3.0570   18.6500 C   0  0  0  0  0  2  0  0  0  0  0  0
    4.9310    0.8780   17.4400 C   0  0  0  0  0  1  0  0  0  0  0  0
    4.0810    1.7820   18.3500 C   0  0  0  0  0  2  0  0  0  0  0  0
  1 13  1  0  0  0  0
  2  1  2  0  0  0  0
  3  1  1  0  0  0  0
  4  3  2  0  0  0  0
  5 10  1  0  0  0  0
  5  4  1  0  0  0  0
  6  5  2  0  0  0  0
  7  8  2  0  0  0  0
  7  6  1  0  0  0  0
  8  9  1  0  0  0  0
  9 10  2  0  0  0  0
 11  8  1  0  0  0  0
 12 11  1  0  0  0  0
 13 14  1  0  0  0  0
 14 17  1  1  0  0  0
 14 15  1  0  0  0  0
 15 16  1  0  0  0  0
 18 17  1  0  0  0  0
 19 20  1  0  0  0  0
 20 18  1  0  0  0  0
M  END
>  <MODEL>
2

>  <REMARK>
 VINA RESULT:      -2.8      1.485      7.248
  Name = bg33_2_ligand
  12 active torsions:
  status: ('A' for Active; 'I' for Inactive)
    1  A    between atoms: C_1  and  C_2
    2  A    between atoms: C_2  and  C_3
    3  A    between atoms: C_3  and  C_4
    4  A    between atoms: C_4  and  C_5
    5  A    between atoms: C_5  and  C_6
    6  A    between atoms: C_5  and  O_8
    7  A    between atoms: C_6  and  C_7
    8  A    between atoms: O_8  and  C_9
    9  A    between atoms: C_9  and  C_11
   10  A    between atoms: C_12  and  C_13
   11  A    between atoms: C_16  and  O_17
   12  A    between atoms: O_17  and  C_18
                            x       y       z     vdW  Elec       q    Type
                         _______ _______ _______ _____ _____    ______ ____

>  <TORSDO>
F 9

$$$$
bg33_2_ligand
 OpenBabel10092621143D

 20 20  0  0  1  0  0  0  0  0999 V2000
   -4.6940   -5.2300   15.5280 C   0  0  0  0  0  0  0  0  0  0  0  0
   -5.8770   -5.4780   15.6150 O   0  0  0  0  0  0  0  0  0  0  0  0
   -4.0910   -5.0060   14.1730 C   0  0  0  0  0  3  0  0  0  0  0  0
   -4.4270   -3.9720   13.3370 C   0  0  0  0  0  3  0  0  0  0  0  0
   -3.6590   -3.7490   12.0570 C   0  0  0  0  0  0  0  0  0  0  0  0
   -2.5860   -4.5580   11.7350 C   0  0  0  0  0  3  0  0  0  0  0  0
   -1.8970   -4.2970   10.5550 C   0  0  0  0  0  3  0  0  0  0  0  0
   -2.2370   -3.2640    9.6920 C   0  0  0  0  0  0  0  0  0  0  0  0
   -3.2940   -2.4640   10.0530 C   0  0  0  0  0  3  0  0  0  0  0  0
   -4.0170   -2.7030   11.2310 C   0  0  0  0  0  3  0  0  0  0  0  0
   -1.5030   -3.0110    8.5380 O   0  0  0  0  0  0  0  0  0  0  0  0
   -0.4730   -3.9650    8.2460 C   0  0  0  0  0  1  0  0  0  0  0  0
   -3.9050   -5.2190   16.7140 O   0  0  0  0  0  0  0  0  0  0  0  0
   -3.4190   -3.9310   17.2090 C   0  0  2  0  0  3  0  0  0  0  0  0
   -4.3060   -2.7580   16.8410 C   0  0  0  0  0  2  0  0  0  0  0  0
   -5.4690   -2.6010   17.8980 C   0  0  0  0  0  1  0  0  0  0  0  0
   -2.0320   -3.6530   16.7020 C   0  0  0  0  0  2  0  0  0  0  0  0
   -2.0130   -2.4220   15.7800 C   0  0  0  0  0  2  0  0  0  0  0  0
   -0.3850   -3.9600   14.6790 C   0  0  0  0  0  1  0  0  0  0  0  0
   -1.1170   -2.6090   14.5830 C   0  0  0  0  0  2  0  0  0  0  0  0
  1  2  2  0  0  0  0
  1 13  1  0  0  0  0
  3  1  1  0  0  0  0
  4  3  2  0  0  0  0
  5  4  1  0  0  0  0
  6  5  1  0  0  0  0
  7  6  2  0  0  0  0
  8  9  2  0  0  0  0
  8  7  1  0  0  0  0
  9 10  1  0  0  0  0
 10  5  2  0  0  0  0
 11  8  1  0  0  0  0
 12 11  1  0  0  0  0
 13 14  1  0  0  0  0
 14 17  1  6  0  0  0
 15 14  1  0  0  0  0
 15 16  1  0  0  0  0
 18 17  1  0  0  0  0
 20 19  1  0  0  0  0
 20 18  1  0  0  0  0
M  END
>  <MODEL>
3

>  <REMARK>
 VINA RESULT:      -2.8      8.554     11.575
  Name = bg33_2_ligand
  12 active torsions:
  status: ('A' for Active; 'I' for Inactive)
    1  A    between atoms: C_1  and  C_2
    2  A    between atoms: C_2  and  C_3
    3  A    between atoms: C_3  and  C_4
    4  A    between atoms: C_4  and  C_5
    5  A    between atoms: C_5  and  C_6
    6  A    between atoms: C_5  and  O_8
    7  A    between atoms: C_6  and  C_7
    8  A    between atoms: O_8  and  C_9
    9  A    between atoms: C_9  and  C_11
   10  A    between atoms: C_12  and  C_13
   11  A    between atoms: C_16  and  O_17
   12  A    between atoms: O_17  and  C_18
                            x       y       z     vdW  Elec       q    Type
                         _______ _______ _______ _____ _____    ______ ____

>  <TORSDO>
F 9

$$$$
bg33_2_ligand
 OpenBabel10092621143D

 20 20  0  0  1  0  0  0  0  0999 V2000
   -2.4950   -3.3330   10.2840 C   0  0  0  0  0  0  0  0  0  0  0  0
   -2.8370   -2.5330    9.4410 O   0  0  0  0  0  0  0  0  0  0  0  0
   -2.7200   -3.0130   11.7320 C   0  0  0  0  0  3  0  0  0  0  0  0
   -3.0240   -3.9440   12.6920 C   0  0  0  0  0  3  0  0  0  0  0  0
   -3.0860   -3.5430   14.1460 C   0  0  0  0  0  0  0  0  0  0  0  0
   -4.2300   -3.7710   14.8850 C   0  0  0  0  0  3  0  0  0  0  0  0
   -4.2460   -3.3630   16.2150 C   0  0  0  0  0  3  0  0  0  0  0  0
   -3.1680   -2.7380   16.8280 C   0  0  0  0  0  0  0  0  0  0  0  0
   -2.0540   -2.5060   16.0580 C   0  0  0  0  0  3  0  0  0  0  0  0
   -2.0000   -2.9110   14.7170 C   0  0  0  0  0  3  0  0  0  0  0  0
   -3.2320   -2.3130   18.1510 O   0  0  0  0  0  0  0  0  0  0  0  0
   -2.0010   -1.8180   18.6950 C   0  0  0  0  0  1  0  0  0  0  0  0
   -1.8350   -4.5260    9.8700 O   0  0  0  0  0  0  0  0  0  0  0  0
   -0.3720   -4.5510    9.8980 C   0  0  2  0  0  3  0  0  0  0  0  0
    0.2710   -4.3780    8.5360 C   0  0  0  0  0  2  0  0  0  0  0  0
    1.7320   -3.8010    8.6910 C   0  0  0  0  0  1  0  0  0  0  0  0
    0.1300   -5.8330   10.4990 C   0  0  0  0  0  2  0  0  0  0  0  0
    0.1030   -5.7760   12.0350 C   0  0  0  0  0  2  0  0  0  0  0  0
    2.2830   -4.6160   12.3960 C   0  0  0  0  0  1  0  0  0  0  0  0
    0.7570   -4.5320   12.5810 C   0  0  0  0  0  2  0  0  0  0  0  0
  1  3  1  0  0  0  0
  2  1  2  0  0  0  0
  3  4  2  0  0  0  0
  4  5  1  0  0  0  0
  5 10  2  0  0  0  0
  5  6  1  0  0  0  0
  6  7  2  0  0  0  0
  7  8  1  0  0  0  0
  8 11  1  0  0  0  0
  9  8  2  0  0  0  0
 10  9  1  0  0  0  0
 11 12  1  0  0  0  0
 13 14  1  0  0  0  0
 13  1  1  0  0  0  0
 14 15  1  6  0  0  0
 14 17  1  0  0  0  0
 15 16  1  0  0  0  0
 17 18  1  0  0  0  0
 18 20  1  0  0  0  0
 19 20  1  0  0  0  0
M  END
>  <MODEL>
4

>  <REMARK>
 VINA RESULT:      -2.8      7.976      9.139
  Name = bg33_2_ligand
  12 active torsions:
  status: ('A' for Active; 'I' for Inactive)
    1  A    between atoms: C_1  and  C_2
    2  A    between atoms: C_2  and  C_3
    3  A    between atoms: C_3  and  C_4
    4  A    between atoms: C_4  and  C_5
    5  A    between atoms: C_5  and  C_6
    6  A    between atoms: C_5  and  O_8
    7  A    between atoms: C_6  and  C_7
    8  A    between atoms: O_8  and  C_9
    9  A    between atoms: C_9  and  C_11
   10  A    between atoms: C_12  and  C_13
   11  A    between atoms: C_16  and  O_17
   12  A    between atoms: O_17  and  C_18
                            x       y       z     vdW  Elec       q    Type
                         _______ _______ _______ _____ _____    ______ ____

>  <TORSDO>
F 9

$$$$
bg33_2_ligand
 OpenBabel10092621143D

 20 20  0  0  1  0  0  0  0  0999 V2000
   -4.6600   -5.0370   13.8940 C   0  0  0  0  0  0  0  0  0  0  0  0
   -5.3430   -6.0310   13.7850 O   0  0  0  0  0  0  0  0  0  0  0  0
   -5.1420   -3.9080   14.7560 C   0  0  0  0  0  3  0  0  0  0  0  0
   -6.4210   -3.4160   14.7420 C   0  0  0  0  0  3  0  0  0  0  0  0
   -6.8470   -2.3760   15.7500 C   0  0  0  0  0  0  0  0  0  0  0  0
   -6.4060   -2.4480   17.0570 C   0  0  0  0  0  3  0  0  0  0  0  0
   -6.8450   -1.4790   17.9530 C   0  0  0  0  0  3  0  0  0  0  0  0
   -7.7050   -0.4490   17.5940 C   0  0  0  0  0  0  0  0  0  0  0  0
   -8.1430   -0.4200   16.2920 C   0  0  0  0  0  3  0  0  0  0  0  0
   -7.7140   -1.3750   15.3600 C   0  0  0  0  0  3  0  0  0  0  0  0
   -8.1500    0.4820   18.5260 O   0  0  0  0  0  0  0  0  0  0  0  0
   -9.5650    0.7210   18.5260 C   0  0  0  0  0  1  0  0  0  0  0  0
   -3.4490   -4.9500   13.1470 O   0  0  0  0  0  0  0  0  0  0  0  0
   -2.8400   -3.6310   12.9710 C   0  0  2  0  0  3  0  0  0  0  0  0
   -2.8410   -3.1410   11.5360 C   0  0  0  0  0  2  0  0  0  0  0  0
   -4.2370   -2.4950   11.1820 C   0  0  0  0  0  1  0  0  0  0  0  0
   -1.4230   -3.6260   13.4710 C   0  0  0  0  0  2  0  0  0  0  0  0
   -1.2520   -2.6480   14.6460 C   0  0  0  0  0  2  0  0  0  0  0  0
   -2.5430   -2.1320   16.7180 C   0  0  0  0  0  1  0  0  0  0  0  0
   -1.7610   -3.2110   15.9480 C   0  0  0  0  0  2  0  0  0  0  0  0
  1  3  1  0  0  0  0
  2  1  2  0  0  0  0
  4  3  2  0  0  0  0
  4  5  1  0  0  0  0
  5  6  1  0  0  0  0
  6  7  2  0  0  0  0
  8  7  1  0  0  0  0
  8 11  1  0  0  0  0
  9  8  2  0  0  0  0
 10  5  2  0  0  0  0
 10  9  1  0  0  0  0
 11 12  1  0  0  0  0
 13  1  1  0  0  0  0
 14 15  1  6  0  0  0
 14 13  1  0  0  0  0
 14 17  1  0  0  0  0
 16 15  1  0  0  0  0
 17 18  1  0  0  0  0
 18 20  1  0  0  0  0
 20 19  1  0  0  0  0
M  END
>  <MODEL>
5

>  <REMARK>
 VINA RESULT:      -2.8      9.612     10.876
  Name = bg33_2_ligand
  12 active torsions:
  status: ('A' for Active; 'I' for Inactive)
    1  A    between atoms: C_1  and  C_2
    2  A    between atoms: C_2  and  C_3
    3  A    between atoms: C_3  and  C_4
    4  A    between atoms: C_4  and  C_5
    5  A    between atoms: C_5  and  C_6
    6  A    between atoms: C_5  and  O_8
    7  A    between atoms: C_6  and  C_7
    8  A    between atoms: O_8  and  C_9
    9  A    between atoms: C_9  and  C_11
   10  A    between atoms: C_12  and  C_13
   11  A    between atoms: C_16  and  O_17
   12  A    between atoms: O_17  and  C_18
                            x       y       z     vdW  Elec       q    Type
                         _______ _______ _______ _____ _____    ______ ____

>  <TORSDO>
F 9

$$$$
bg33_2_ligand
 OpenBabel10092621143D

 20 20  0  0  1  0  0  0  0  0999 V2000
   -1.5930   -2.7980   15.4830 C   0  0  0  0  0  0  0  0  0  0  0  0
   -0.8810   -3.6040   16.0390 O   0  0  0  0  0  0  0  0  0  0  0  0
   -1.6300   -2.7650   13.9830 C   0  0  0  0  0  3  0  0  0  0  0  0
   -2.0450   -3.8080   13.1970 C   0  0  0  0  0  3  0  0  0  0  0  0
   -2.1850   -3.6270   11.7050 C   0  0  0  0  0  0  0  0  0  0  0  0
   -3.1100   -2.7390   11.1920 C   0  0  0  0  0  3  0  0  0  0  0  0
   -3.2150   -2.6250    9.8090 C   0  0  0  0  0  3  0  0  0  0  0  0
   -2.4370   -3.3620    8.9270 C   0  0  0  0  0  0  0  0  0  0  0  0
   -1.5430   -4.2540    9.4700 C   0  0  0  0  0  3  0  0  0  0  0  0
   -1.4040   -4.3880   10.8580 C   0  0  0  0  0  3  0  0  0  0  0  0
   -2.5950   -3.2470    7.5500 O   0  0  0  0  0  0  0  0  0  0  0  0
   -2.1510   -4.3760    6.7860 C   0  0  0  0  0  1  0  0  0  0  0  0
   -2.3250   -1.8660   16.2740 O   0  0  0  0  0  0  0  0  0  0  0  0
   -3.4470   -2.3670   17.0680 C   0  0  2  0  0  3  0  0  0  0  0  0
   -3.1080   -2.6100   18.5260 C   0  0  0  0  0  2  0  0  0  0  0  0
   -1.8750   -1.7210   18.9550 C   0  0  0  0  0  1  0  0  0  0  0  0
   -3.9850   -3.6440   16.4880 C   0  0  0  0  0  2  0  0  0  0  0  0
   -5.2840   -3.3960   15.7040 C   0  0  0  0  0  2  0  0  0  0  0  0
   -6.0620   -3.4780   13.3350 C   0  0  0  0  0  1  0  0  0  0  0  0
   -5.3960   -4.2640   14.4780 C   0  0  0  0  0  2  0  0  0  0  0  0
  1  2  2  0  0  0  0
  1 13  1  0  0  0  0
  3  1  1  0  0  0  0
  4  3  2  0  0  0  0
  5  4  1  0  0  0  0
  6  5  1  0  0  0  0
  7  6  2  0  0  0  0
  8  9  2  0  0  0  0
  8  7  1  0  0  0  0
  9 10  1  0  0  0  0
 10  5  2  0  0  0  0
 11  8  1  0  0  0  0
 12 11  1  0  0  0  0
 13 14  1  0  0  0  0
 14 17  1  6  0  0  0
 14 15  1  0  0  0  0
 15 16  1  0  0  0  0
 18 17  1  0  0  0  0
 19 20  1  0  0  0  0
 20 18  1  0  0  0  0
M  END
>  <MODEL>
6

>  <REMARK>
 VINA RESULT:      -2.7      8.302     11.545
  Name = bg33_2_ligand
  12 active torsions:
  status: ('A' for Active; 'I' for Inactive)
    1  A    between atoms: C_1  and  C_2
    2  A    between atoms: C_2  and  C_3
    3  A    between atoms: C_3  and  C_4
    4  A    between atoms: C_4  and  C_5
    5  A    between atoms: C_5  and  C_6
    6  A    between atoms: C_5  and  O_8
    7  A    between atoms: C_6  and  C_7
    8  A    between atoms: O_8  and  C_9
    9  A    between atoms: C_9  and  C_11
   10  A    between atoms: C_12  and  C_13
   11  A    between atoms: C_16  and  O_17
   12  A    between atoms: O_17  and  C_18
                            x       y       z     vdW  Elec       q    Type
                         _______ _______ _______ _____ _____    ______ ____

>  <TORSDO>
F 9

$$$$
bg33_2_ligand
 OpenBabel10092621143D

 20 20  0  0  1  0  0  0  0  0999 V2000
   -4.7220   -3.5580   17.9340 C   0  0  0  0  0  0  0  0  0  0  0  0
   -4.7350   -4.4190   18.7860 O   0  0  0  0  0  0  0  0  0  0  0  0
   -5.7830   -2.4970   17.9490 C   0  0  0  0  0  3  0  0  0  0  0  0
   -6.1840   -1.7890   16.8450 C   0  0  0  0  0  3  0  0  0  0  0  0
   -7.3600   -0.8470   16.9320 C   0  0  0  0  0  0  0  0  0  0  0  0
   -7.9340   -0.3380   15.7840 C   0  0  0  0  0  3  0  0  0  0  0  0
   -9.0010    0.5450   15.9180 C   0  0  0  0  0  3  0  0  0  0  0  0
   -9.5100    0.9360   17.1490 C   0  0  0  0  0  0  0  0  0  0  0  0
   -8.9010    0.4280   18.2720 C   0  0  0  0  0  3  0  0  0  0  0  0
   -7.8300   -0.4700   18.1740 C   0  0  0  0  0  3  0  0  0  0  0  0
  -10.5570    1.8470   17.2460 O   0  0  0  0  0  0  0  0  0  0  0  0
  -10.7420    2.4320   18.5420 C   0  0  0  0  0  1  0  0  0  0  0  0
   -3.7340   -3.6200   16.9100 O   0  0  0  0  0  0  0  0  0  0  0  0
   -2.7020   -2.5830   16.8830 C   0  0  2  0  0  3  0  0  0  0  0  0
   -1.9100   -2.5380   15.5910 C   0  0  0  0  0  2  0  0  0  0  0  0
   -2.6380   -3.3860   14.4750 C   0  0  0  0  0  1  0  0  0  0  0  0
   -1.7390   -2.7570   18.0220 C   0  0  0  0  0  2  0  0  0  0  0  0
   -1.7940   -1.5610   18.9870 C   0  0  0  0  0  2  0  0  0  0  0  0
   -2.6250   -2.7340   21.0260 C   0  0  0  0  0  1  0  0  0  0  0  0
   -1.4600   -1.9440   20.4050 C   0  0  0  0  0  2  0  0  0  0  0  0
  1  3  1  0  0  0  0
  1  2  2  0  0  0  0
  4  5  1  0  0  0  0
  4  3  2  0  0  0  0
  5 10  1  0  0  0  0
  6  7  1  0  0  0  0
  6  5  2  0  0  0  0
  7  8  2  0  0  0  0
  8 11  1  0  0  0  0
  8  9  1  0  0  0  0
 10  9  2  0  0  0  0
 11 12  1  0  0  0  0
 13  1  1  0  0  0  0
 14 15  1  6  0  0  0
 14 13  1  0  0  0  0
 14 17  1  0  0  0  0
 16 15  1  0  0  0  0
 17 18  1  0  0  0  0
 18 20  1  0  0  0  0
 20 19  1  0  0  0  0
M  END
>  <MODEL>
7

>  <REMARK>
 VINA RESULT:      -2.7     10.100     11.466
  Name = bg33_2_ligand
  12 active torsions:
  status: ('A' for Active; 'I' for Inactive)
    1  A    between atoms: C_1  and  C_2
    2  A    between atoms: C_2  and  C_3
    3  A    between atoms: C_3  and  C_4
    4  A    between atoms: C_4  and  C_5
    5  A    between atoms: C_5  and  C_6
    6  A    between atoms: C_5  and  O_8
    7  A    between atoms: C_6  and  C_7
    8  A    between atoms: O_8  and  C_9
    9  A    between atoms: C_9  and  C_11
   10  A    between atoms: C_12  and  C_13
   11  A    between atoms: C_16  and  O_17
   12  A    between atoms: O_17  and  C_18
                            x       y       z     vdW  Elec       q    Type
                         _______ _______ _______ _____ _____    ______ ____

>  <TORSDO>
F 9

$$$$
bg33_2_ligand
 OpenBabel10092621143D

 20 20  0  0  1  0  0  0  0  0999 V2000
    3.9890    1.4190   11.6910 C   0  0  0  0  0  0  0  0  0  0  0  0
    4.3890    2.5610   11.6280 O   0  0  0  0  0  0  0  0  0  0  0  0
    4.3430    0.4580   10.5960 C   0  0  0  0  0  3  0  0  0  0  0  0
    4.1190   -0.8940   10.6510 C   0  0  0  0  0  3  0  0  0  0  0  0
    4.3770   -1.7570    9.4400 C   0  0  0  0  0  0  0  0  0  0  0  0
    5.6270   -1.7850    8.8540 C   0  0  0  0  0  3  0  0  0  0  0  0
    5.8070   -2.5790    7.7260 C   0  0  0  0  0  3  0  0  0  0  0  0
    4.7900   -3.3390    7.1640 C   0  0  0  0  0  0  0  0  0  0  0  0
    3.5520   -3.2710    7.7580 C   0  0  0  0  0  3  0  0  0  0  0  0
    3.3370   -2.4880    8.9010 C   0  0  0  0  0  3  0  0  0  0  0  0
    4.9980   -4.0950    6.0160 O   0  0  0  0  0  0  0  0  0  0  0  0
    3.8080   -4.4890    5.3180 C   0  0  0  0  0  1  0  0  0  0  0  0
    3.1420    1.0470   12.7750 O   0  0  0  0  0  0  0  0  0  0  0  0
    3.6790    1.1360   14.1330 C   0  0  2  0  0  3  0  0  0  0  0  0
    3.7710   -0.1980   14.8460 C   0  0  0  0  0  2  0  0  0  0  0  0
    2.8680   -1.2690   14.1180 C   0  0  0  0  0  1  0  0  0  0  0  0
    2.8510    2.0660   14.9750 C   0  0  0  0  0  2  0  0  0  0  0  0
    3.5540    3.4210   15.1640 C   0  0  0  0  0  2  0  0  0  0  0  0
    1.7810    4.9350   16.0530 C   0  0  0  0  0  1  0  0  0  0  0  0
    3.0690    4.1600   16.3840 C   0  0  0  0  0  2  0  0  0  0  0  0
  1 13  1  0  0  0  0
  2  1  2  0  0  0  0
  3  4  2  0  0  0  0
  3  1  1  0  0  0  0
  5  4  1  0  0  0  0
  6  5  2  0  0  0  0
  7  6  1  0  0  0  0
  8  7  2  0  0  0  0
  8  9  1  0  0  0  0
  9 10  2  0  0  0  0
 10  5  1  0  0  0  0
 11  8  1  0  0  0  0
 12 11  1  0  0  0  0
 13 14  1  0  0  0  0
 14 15  1  1  0  0  0
 14 17  1  0  0  0  0
 16 15  1  0  0  0  0
 17 18  1  0  0  0  0
 18 20  1  0  0  0  0
 19 20  1  0  0  0  0
M  END
>  <MODEL>
8

>  <REMARK>
 VINA RESULT:      -2.7      3.726      8.704
  Name = bg33_2_ligand
  12 active torsions:
  status: ('A' for Active; 'I' for Inactive)
    1  A    between atoms: C_1  and  C_2
    2  A    between atoms: C_2  and  C_3
    3  A    between atoms: C_3  and  C_4
    4  A    between atoms: C_4  and  C_5
    5  A    between atoms: C_5  and  C_6
    6  A    between atoms: C_5  and  O_8
    7  A    between atoms: C_6  and  C_7
    8  A    between atoms: O_8  and  C_9
    9  A    between atoms: C_9  and  C_11
   10  A    between atoms: C_12  and  C_13
   11  A    between atoms: C_16  and  O_17
   12  A    between atoms: O_17  and  C_18
                            x       y       z     vdW  Elec       q    Type
                         _______ _______ _______ _____ _____    ______ ____

>  <TORSDO>
F 9

$$$$
bg33_2_ligand
 OpenBabel10092621143D

 20 20  0  0  1  0  0  0  0  0999 V2000
   -0.8600   -5.4140   11.3680 C   0  0  0  0  0  0  0  0  0  0  0  0
   -0.7950   -6.5890   11.0830 O   0  0  0  0  0  0  0  0  0  0  0  0
   -1.5350   -5.0060   12.6440 C   0  0  0  0  0  3  0  0  0  0  0  0
   -1.4130   -3.7690   13.2220 C   0  0  0  0  0  3  0  0  0  0  0  0
   -2.2480   -3.4070   14.4270 C   0  0  0  0  0  0  0  0  0  0  0  0
   -3.5560   -3.8380   14.5250 C   0  0  0  0  0  3  0  0  0  0  0  0
   -4.2910   -3.4580   15.6450 C   0  0  0  0  0  3  0  0  0  0  0  0
   -3.7690   -2.6690   16.6610 C   0  0  0  0  0  0  0  0  0  0  0  0
   -2.4710   -2.2390   16.5210 C   0  0  0  0  0  3  0  0  0  0  0  0
   -1.6990   -2.6080   15.4100 C   0  0  0  0  0  3  0  0  0  0  0  0
   -4.5430   -2.2810   17.7490 O   0  0  0  0  0  0  0  0  0  0  0  0
   -5.9590   -2.2790   17.5240 C   0  0  0  0  0  1  0  0  0  0  0  0
   -0.3450   -4.4550   10.4490 O   0  0  0  0  0  0  0  0  0  0  0  0
   -0.7130   -4.5840    9.0380 C   0  0  2  0  0  3  0  0  0  0  0  0
    0.4720   -4.7610    8.1090 C   0  0  0  0  0  2  0  0  0  0  0  0
    1.8230   -4.6390    8.9170 C   0  0  0  0  0  1  0  0  0  0  0  0
   -1.4990   -3.3890    8.5790 C   0  0  0  0  0  2  0  0  0  0  0  0
   -2.9430   -3.4360    9.1080 C   0  0  0  0  0  2  0  0  0  0  0  0
   -4.3820   -2.8690   11.0660 C   0  0  0  0  0  1  0  0  0  0  0  0
   -3.1950   -2.4220   10.1950 C   0  0  0  0  0  2  0  0  0  0  0  0
  1  3  1  0  0  0  0
  2  1  2  0  0  0  0
  3  4  2  0  0  0  0
  4  5  1  0  0  0  0
  5  6  2  0  0  0  0
  5 10  1  0  0  0  0
  6  7  1  0  0  0  0
  7  8  2  0  0  0  0
  8 11  1  0  0  0  0
  9  8  1  0  0  0  0
 10  9  2  0  0  0  0
 12 11  1  0  0  0  0
 13  1  1  0  0  0  0
 14 15  1  6  0  0  0
 14 13  1  0  0  0  0
 15 16  1  0  0  0  0
 17 14  1  0  0  0  0
 17 18  1  0  0  0  0
 18 20  1  0  0  0  0
 20 19  1  0  0  0  0
M  END
>  <MODEL>
9

>  <REMARK>
 VINA RESULT:      -2.7      8.335      9.443
  Name = bg33_2_ligand
  12 active torsions:
  status: ('A' for Active; 'I' for Inactive)
    1  A    between atoms: C_1  and  C_2
    2  A    between atoms: C_2  and  C_3
    3  A    between atoms: C_3  and  C_4
    4  A    between atoms: C_4  and  C_5
    5  A    between atoms: C_5  and  C_6
    6  A    between atoms: C_5  and  O_8
    7  A    between atoms: C_6  and  C_7
    8  A    between atoms: O_8  and  C_9
    9  A    between atoms: C_9  and  C_11
   10  A    between atoms: C_12  and  C_13
   11  A    between atoms: C_16  and  O_17
   12  A    between atoms: O_17  and  C_18
                            x       y       z     vdW  Elec       q    Type
                         _______ _______ _______ _____ _____    ______ ____

>  <TORSDO>
F 9

$$$$
