bg33_3_ligand
 OpenBabel10092621153D

 20 20  0  0  1  0  0  0  0  0999 V2000
   -1.6770   11.8300   -2.9050 C   0  0  0  0  0  0  0  0  0  0  0  0
   -2.1880   12.8360   -3.3400 O   0  0  0  0  0  0  0  0  0  0  0  0
   -1.6330   11.5260   -1.3700 C   0  0  0  0  0  3  0  0  0  0  0  0
   -1.6410   10.2360   -0.9630 C   0  0  0  0  0  3  0  0  0  0  0  0
   -1.7020    9.8740    0.4290 C   0  0  0  0  0  0  0  0  0  0  0  0
   -0.7430    9.0660    1.0010 C   0  0  0  0  0  3  0  0  0  0  0  0
   -0.7490    8.7550    2.3120 C   0  0  0  0  0  3  0  0  0  0  0  0
   -1.7580    9.2650    3.0980 C   0  0  0  0  0  0  0  0  0  0  0  0
   -2.7420   10.0350    2.5610 C   0  0  0  0  0  3  0  0  0  0  0  0
   -2.7060   10.3480    1.2180 C   0  0  0  0  0  3  0  0  0  0  0  0
   -1.8600    8.9700    4.4110 O   0  0  0  0  0  0  0  0  0  0  0  0
   -1.9340   10.0810    5.2870 C   0  0  0  0  0  1  0  0  0  0  0  0
   -1.1500   11.0410   -3.7400 O   0  0  0  0  0  0  0  0  0  0  0  0
   -2.0030   10.5270   -4.8120 C   0  0  2  0  0  3  0  0  0  0  0  0
   -2.5780    9.2590   -4.3770 C   0  0  0  0  0  2  0  0  0  0  0  0
   -4.0540    9.3280   -4.1250 C   0  0  0  0  0  1  0  0  0  0  0  0
   -1.2040   10.3270   -6.0860 C   0  0  0  0  0  2  0  0  0  0  0  0
   -0.6030    8.9050   -6.0410 C   0  0  0  0  0  2  0  0  0  0  0  0
    0.4590    7.1280   -7.3870 C   0  0  0  0  0  1  0  0  0  0  0  0
   -0.6380    8.2150   -7.3680 C   0  0  0  0  0  2  0  0  0  0  0  0
  1  3  1  0  0  0  0
  2  1  2  0  0  0  0
  3  4  2  0  0  0  0
  4  5  1  0  0  0  0
  5  6  2  0  0  0  0
  5 10  1  0  0  0  0
  6  7  1  0  0  0  0
  7  8  2  0  0  0  0
  8 11  1  0  0  0  0
  9  8  1  0  0  0  0
 10  9  2  0  0  0  0
 11 12  1  0  0  0  0
 13  1  1  0  0  0  0
 14 17  1  6  0  0  0
 14 15  1  0  0  0  0
 14 13  1  0  0  0  0
 15 16  1  0  0  0  0
 17 18  1  0  0  0  0
 19 20  1  0  0  0  0
 20 18  1  0  0  0  0
M  END
>  <MODEL>
1

>  <REMARK>
 VINA RESULT:      -4.0      0.000      0.000
  Name = bg33_3_ligand
  12 active torsions:
  status: ('A' for Active; 'I' for Inactive)
    1  A    between atoms: C_1  and  C_2
    2  A    between atoms: C_2  and  C_3
    3  A    between atoms: C_3  and  C_4
    4  A    between atoms: C_4  and  C_5
    5  A    between atoms: C_5  and  C_6
    6  A    between atoms: C_5  and  O_8
    7  A    between atoms: C_6  and  C_7
    8  A    between atoms: O_8  and  C_9
    9  A    between atoms: C_9  and  C_11
   10  A    between atoms: C_12  and  C_13
   11  A    between atoms: C_16  and  O_17
   12  A    between atoms: O_17  and  C_18
                            x       y       z     vdW  Elec       q    Type
                         _______ _______ _______ _____ _____    ______ ____

>  <TORSDO>
F 9

$$$$
bg33_3_ligand
 OpenBabel10092621153D

 20 20  0  0  1  0  0  0  0  0999 V2000
   -1.2050   11.5930   -3.0740 C   0  0  0  0  0  0  0  0  0  0  0  0
   -0.4690   12.4190   -3.5620 O   0  0  0  0  0  0  0  0  0  0  0  0
   -1.0000   11.0660   -1.6140 C   0  0  0  0  0  3  0  0  0  0  0  0
   -2.0670   10.5710   -0.9460 C   0  0  0  0  0  3  0  0  0  0  0  0
   -1.9820   10.1590    0.4320 C   0  0  0  0  0  0  0  0  0  0  0  0
   -2.8570   10.6450    1.3790 C   0  0  0  0  0  3  0  0  0  0  0  0
   -2.8310   10.2360    2.6630 C   0  0  0  0  0  3  0  0  0  0  0  0
   -1.8890    9.3020    3.0300 C   0  0  0  0  0  0  0  0  0  0  0  0
   -0.9860    8.8280    2.1300 C   0  0  0  0  0  3  0  0  0  0  0  0
   -1.0410    9.2540    0.8200 C   0  0  0  0  0  3  0  0  0  0  0  0
   -1.7690    8.8700    4.3030 O   0  0  0  0  0  0  0  0  0  0  0  0
   -1.7930    9.8770    5.3000 C   0  0  0  0  0  1  0  0  0  0  0  0
   -2.1380   11.1460   -3.8010 O   0  0  0  0  0  0  0  0  0  0  0  0
   -1.9680    9.8080   -4.3670 C   0  0  2  0  0  3  0  0  0  0  0  0
   -1.8020    9.9350   -5.8100 C   0  0  0  0  0  2  0  0  0  0  0  0
   -0.8620    8.9240   -6.3940 C   0  0  0  0  0  1  0  0  0  0  0  0
   -3.1700    8.9350   -4.0560 C   0  0  0  0  0  2  0  0  0  0  0  0
   -4.3800    9.8700   -3.8350 C   0  0  0  0  0  2  0  0  0  0  0  0
   -5.5730   10.1360   -5.9800 C   0  0  0  0  0  1  0  0  0  0  0  0
   -5.5930    9.4450   -4.6000 C   0  0  0  0  0  2  0  0  0  0  0  0
  1  3  1  0  0  0  0
  2  1  2  0  0  0  0
  3  4  2  0  0  0  0
  4  5  1  0  0  0  0
  5 10  2  0  0  0  0
  5  6  1  0  0  0  0
  6  7  2  0  0  0  0
  7  8  1  0  0  0  0
  8 11  1  0  0  0  0
  9  8  2  0  0  0  0
 10  9  1  0  0  0  0
 11 12  1  0  0  0  0
 13  1  1  0  0  0  0
 14 15  1  6  0  0  0
 14 17  1  0  0  0  0
 14 13  1  0  0  0  0
 16 15  1  0  0  0  0
 17 18  1  0  0  0  0
 19 20  1  0  0  0  0
 20 18  1  0  0  0  0
M  END
>  <MODEL>
2

>  <REMARK>
 VINA RESULT:      -3.8      0.919      2.818
  Name = bg33_3_ligand
  12 active torsions:
  status: ('A' for Active; 'I' for Inactive)
    1  A    between atoms: C_1  and  C_2
    2  A    between atoms: C_2  and  C_3
    3  A    between atoms: C_3  and  C_4
    4  A    between atoms: C_4  and  C_5
    5  A    between atoms: C_5  and  C_6
    6  A    between atoms: C_5  and  O_8
    7  A    between atoms: C_6  and  C_7
    8  A    between atoms: O_8  and  C_9
    9  A    between atoms: C_9  and  C_11
   10  A    between atoms: C_12  and  C_13
   11  A    between atoms: C_16  and  O_17
   12  A    between atoms: O_17  and  C_18
                            x       y       z     vdW  Elec       q    Type
                         _______ _______ _______ _____ _____    ______ ____

>  <TORSDO>
F 9

$$$$
bg33_3_ligand
 OpenBabel10092621153D

 20 20  0  0  1  0  0  0  0  0999 V2000
   -8.6010    3.1560    5.3950 C   0  0  0  0  0  0  0  0  0  0  0  0
   -8.3950    3.1370    6.5860 O   0  0  0  0  0  0  0  0  0  0  0  0
   -8.1610    4.3620    4.5000 C   0  0  0  0  0  3  0  0  0  0  0  0
   -9.1140    5.1800    3.9970 C   0  0  0  0  0  3  0  0  0  0  0  0
   -8.8000    6.2510    3.0870 C   0  0  0  0  0  0  0  0  0  0  0  0
   -7.7960    7.1540    3.3640 C   0  0  0  0  0  3  0  0  0  0  0  0
   -7.4500    8.1330    2.5060 C   0  0  0  0  0  3  0  0  0  0  0  0
   -8.1340    8.2290    1.3160 C   0  0  0  0  0  0  0  0  0  0  0  0
   -9.1550    7.3780    1.0250 C   0  0  0  0  0  3  0  0  0  0  0  0
   -9.4830    6.3780    1.9150 C   0  0  0  0  0  3  0  0  0  0  0  0
   -7.8760    9.2050    0.4200 O   0  0  0  0  0  0  0  0  0  0  0  0
   -6.8220   10.0890    0.7590 C   0  0  0  0  0  1  0  0  0  0  0  0
   -9.2140    2.1680    4.8980 O   0  0  0  0  0  0  0  0  0  0  0  0
   -8.6740    1.5890    3.6680 C   0  0  2  0  0  3  0  0  0  0  0  0
   -9.7720    1.3840    2.7320 C   0  0  0  0  0  2  0  0  0  0  0  0
   -9.8410    2.4240    1.6550 C   0  0  0  0  0  1  0  0  0  0  0  0
   -7.9800    0.2700    3.9540 C   0  0  0  0  0  2  0  0  0  0  0  0
   -9.0390   -0.7010    4.5220 C   0  0  0  0  0  2  0  0  0  0  0  0
   -8.0090   -2.0900    2.7600 C   0  0  0  0  0  1  0  0  0  0  0  0
   -8.8500   -2.1090    4.0550 C   0  0  0  0  0  2  0  0  0  0  0  0
  1  2  2  0  0  0  0
  3  1  1  0  0  0  0
  4  3  2  0  0  0  0
  5  6  1  0  0  0  0
  5  4  1  0  0  0  0
  7  6  2  0  0  0  0
  8  7  1  0  0  0  0
  9  8  2  0  0  0  0
  9 10  1  0  0  0  0
 10  5  2  0  0  0  0
 11 12  1  0  0  0  0
 11  8  1  0  0  0  0
 13  1  1  0  0  0  0
 14 15  1  6  0  0  0
 14 17  1  0  0  0  0
 14 13  1  0  0  0  0
 16 15  1  0  0  0  0
 17 18  1  0  0  0  0
 19 20  1  0  0  0  0
 20 18  1  0  0  0  0
M  END
>  <MODEL>
3

>  <REMARK>
 VINA RESULT:      -3.7      9.196     11.973
  Name = bg33_3_ligand
  12 active torsions:
  status: ('A' for Active; 'I' for Inactive)
    1  A    between atoms: C_1  and  C_2
    2  A    between atoms: C_2  and  C_3
    3  A    between atoms: C_3  and  C_4
    4  A    between atoms: C_4  and  C_5
    5  A    between atoms: C_5  and  C_6
    6  A    between atoms: C_5  and  O_8
    7  A    between atoms: C_6  and  C_7
    8  A    between atoms: O_8  and  C_9
    9  A    between atoms: C_9  and  C_11
   10  A    between atoms: C_12  and  C_13
   11  A    between atoms: C_16  and  O_17
   12  A    between atoms: O_17  and  C_18
                            x       y       z     vdW  Elec       q    Type
                         _______ _______ _______ _____ _____    ______ ____

>  <TORSDO>
F 9

$$$$
bg33_3_ligand
 OpenBabel10092621153D

 20 20  0  0  1  0  0  0  0  0999 V2000
   -8.5010    3.0550    5.5200 C   0  0  0  0  0  0  0  0  0  0  0  0
   -8.9210    2.4990    6.5080 O   0  0  0  0  0  0  0  0  0  0  0  0
   -8.6500    4.6000    5.3180 C   0  0  0  0  0  3  0  0  0  0  0  0
   -8.1830    5.1540    4.1750 C   0  0  0  0  0  3  0  0  0  0  0  0
   -8.1930    6.5780    3.9560 C   0  0  0  0  0  0  0  0  0  0  0  0
   -8.8350    7.4310    4.8260 C   0  0  0  0  0  3  0  0  0  0  0  0
   -8.8150    8.7690    4.6710 C   0  0  0  0  0  3  0  0  0  0  0  0
   -8.1290    9.2910    3.5980 C   0  0  0  0  0  0  0  0  0  0  0  0
   -7.5140    8.4770    2.6980 C   0  0  0  0  0  3  0  0  0  0  0  0
   -7.5400    7.1120    2.8860 C   0  0  0  0  0  3  0  0  0  0  0  0
   -8.0940   10.6170    3.3490 O   0  0  0  0  0  0  0  0  0  0  0  0
   -8.4850   11.0080    2.0440 C   0  0  0  0  0  1  0  0  0  0  0  0
   -7.9580    2.3340    4.6350 O   0  0  0  0  0  0  0  0  0  0  0  0
   -8.7280    1.2010    4.1230 C   0  0  2  0  0  3  0  0  0  0  0  0
   -7.8130    0.0950    3.8700 C   0  0  0  0  0  2  0  0  0  0  0  0
   -8.4950   -1.1470    3.3840 C   0  0  0  0  0  1  0  0  0  0  0  0
   -9.4550    1.5780    2.8460 C   0  0  0  0  0  2  0  0  0  0  0  0
  -10.9010    1.9660    3.2300 C   0  0  0  0  0  2  0  0  0  0  0  0
  -10.3320    3.7380    1.6070 C   0  0  0  0  0  1  0  0  0  0  0  0
  -11.2830    3.3310    2.7530 C   0  0  0  0  0  2  0  0  0  0  0  0
  1  2  2  0  0  0  0
  3  1  1  0  0  0  0
  4  3  2  0  0  0  0
  5  4  1  0  0  0  0
  5  6  1  0  0  0  0
  7  6  2  0  0  0  0
  8  7  1  0  0  0  0
  9 10  1  0  0  0  0
  9  8  2  0  0  0  0
 10  5  2  0  0  0  0
 11  8  1  0  0  0  0
 12 11  1  0  0  0  0
 13  1  1  0  0  0  0
 14 17  1  6  0  0  0
 14 13  1  0  0  0  0
 15 14  1  0  0  0  0
 16 15  1  0  0  0  0
 17 18  1  0  0  0  0
 19 20  1  0  0  0  0
 20 18  1  0  0  0  0
M  END
>  <MODEL>
4

>  <REMARK>
 VINA RESULT:      -3.7      8.804     11.794
  Name = bg33_3_ligand
  12 active torsions:
  status: ('A' for Active; 'I' for Inactive)
    1  A    between atoms: C_1  and  C_2
    2  A    between atoms: C_2  and  C_3
    3  A    between atoms: C_3  and  C_4
    4  A    between atoms: C_4  and  C_5
    5  A    between atoms: C_5  and  C_6
    6  A    between atoms: C_5  and  O_8
    7  A    between atoms: C_6  and  C_7
    8  A    between atoms: O_8  and  C_9
    9  A    between atoms: C_9  and  C_11
   10  A    between atoms: C_12  and  C_13
   11  A    between atoms: C_16  and  O_17
   12  A    between atoms: O_17  and  C_18
                            x       y       z     vdW  Elec       q    Type
                         _______ _______ _______ _____ _____    ______ ____

>  <TORSDO>
F 9

$$$$
bg33_3_ligand
 OpenBabel10092621153D

 20 20  0  0  1  0  0  0  0  0999 V2000
   -2.1080   10.0530   -4.4440 C   0  0  0  0  0  0  0  0  0  0  0  0
   -3.2160    9.5700   -4.4630 O   0  0  0  0  0  0  0  0  0  0  0  0
   -0.9110    9.3990   -5.2110 C   0  0  0  0  0  3  0  0  0  0  0  0
   -1.1510    8.7950   -6.3980 C   0  0  0  0  0  3  0  0  0  0  0  0
   -0.1240    8.0860   -7.1170 C   0  0  0  0  0  0  0  0  0  0  0  0
    1.1080    7.8430   -6.5500 C   0  0  0  0  0  3  0  0  0  0  0  0
    2.0660    7.1380   -7.1830 C   0  0  0  0  0  3  0  0  0  0  0  0
    1.7950    6.6520   -8.4420 C   0  0  0  0  0  0  0  0  0  0  0  0
    0.6030    6.9040   -9.0470 C   0  0  0  0  0  3  0  0  0  0  0  0
   -0.3650    7.6190   -8.3740 C   0  0  0  0  0  3  0  0  0  0  0  0
    2.7140    5.9710   -9.1590 O   0  0  0  0  0  0  0  0  0  0  0  0
    2.4160    5.7970  -10.5330 C   0  0  0  0  0  1  0  0  0  0  0  0
   -1.9440   11.1000   -3.7540 O   0  0  0  0  0  0  0  0  0  0  0  0
   -2.4960   11.1070   -2.4000 C   0  0  2  0  0  3  0  0  0  0  0  0
   -3.3410   12.2860   -2.2520 C   0  0  0  0  0  2  0  0  0  0  0  0
   -4.6600   11.9980   -1.6000 C   0  0  0  0  0  1  0  0  0  0  0  0
   -1.3860   11.1280   -1.3650 C   0  0  0  0  0  2  0  0  0  0  0  0
   -1.6390    9.9590   -0.3880 C   0  0  0  0  0  2  0  0  0  0  0  0
   -0.8310    8.5060    1.4380 C   0  0  0  0  0  1  0  0  0  0  0  0
   -0.4780    9.6950    0.5170 C   0  0  0  0  0  2  0  0  0  0  0  0
  1 13  1  0  0  0  0
  2  1  2  0  0  0  0
  3  1  1  0  0  0  0
  4  3  2  0  0  0  0
  5  6  1  0  0  0  0
  5  4  1  0  0  0  0
  7  6  2  0  0  0  0
  8  7  1  0  0  0  0
  9  8  2  0  0  0  0
  9 10  1  0  0  0  0
 10  5  2  0  0  0  0
 11  8  1  0  0  0  0
 12 11  1  0  0  0  0
 13 14  1  0  0  0  0
 14 15  1  6  0  0  0
 14 17  1  0  0  0  0
 15 16  1  0  0  0  0
 17 18  1  0  0  0  0
 18 20  1  0  0  0  0
 20 19  1  0  0  0  0
M  END
>  <MODEL>
5

>  <REMARK>
 VINA RESULT:      -3.7      2.480      8.510
  Name = bg33_3_ligand
  12 active torsions:
  status: ('A' for Active; 'I' for Inactive)
    1  A    between atoms: C_1  and  C_2
    2  A    between atoms: C_2  and  C_3
    3  A    between atoms: C_3  and  C_4
    4  A    between atoms: C_4  and  C_5
    5  A    between atoms: C_5  and  C_6
    6  A    between atoms: C_5  and  O_8
    7  A    between atoms: C_6  and  C_7
    8  A    between atoms: O_8  and  C_9
    9  A    between atoms: C_9  and  C_11
   10  A    between atoms: C_12  and  C_13
   11  A    between atoms: C_16  and  O_17
   12  A    between atoms: O_17  and  C_18
                            x       y       z     vdW  Elec       q    Type
                         _______ _______ _______ _____ _____    ______ ____

>  <TORSDO>
F 9

$$$$
bg33_3_ligand
 OpenBabel10092621153D

 20 20  0  0  1  0  0  0  0  0999 V2000
  -10.5270    2.7250    2.4640 C   0  0  0  0  0  0  0  0  0  0  0  0
  -11.6200    3.0380    2.8770 O   0  0  0  0  0  0  0  0  0  0  0  0
  -10.3370    2.0360    1.0720 C   0  0  0  0  0  3  0  0  0  0  0  0
  -10.7390    0.7530    0.9220 C   0  0  0  0  0  3  0  0  0  0  0  0
  -10.5100    0.0170   -0.2950 C   0  0  0  0  0  0  0  0  0  0  0  0
  -10.6950    0.6010   -1.5290 C   0  0  0  0  0  3  0  0  0  0  0  0
  -10.4390   -0.0490   -2.6810 C   0  0  0  0  0  3  0  0  0  0  0  0
   -9.9800   -1.3450   -2.6100 C   0  0  0  0  0  0  0  0  0  0  0  0
   -9.8210   -1.9660   -1.4100 C   0  0  0  0  0  3  0  0  0  0  0  0
  -10.0800   -1.2740   -0.2460 C   0  0  0  0  0  3  0  0  0  0  0  0
   -9.7380   -2.0790   -3.7160 O   0  0  0  0  0  0  0  0  0  0  0  0
  -10.6380   -1.8850   -4.7930 C   0  0  0  0  0  1  0  0  0  0  0  0
   -9.5370    2.9520    3.2170 O   0  0  0  0  0  0  0  0  0  0  0  0
   -9.2340    1.9600    4.2490 C   0  0  2  0  0  3  0  0  0  0  0  0
   -8.8950    2.6630    5.4800 C   0  0  0  0  0  2  0  0  0  0  0  0
   -8.5190    4.0980    5.2660 C   0  0  0  0  0  1  0  0  0  0  0  0
   -8.0810    1.0730    3.8210 C   0  0  0  0  0  2  0  0  0  0  0  0
   -8.3620   -0.3480    4.3590 C   0  0  0  0  0  2  0  0  0  0  0  0
   -7.9750   -2.2160    2.7920 C   0  0  0  0  0  1  0  0  0  0  0  0
   -9.0250   -1.2330    3.3520 C   0  0  0  0  0  2  0  0  0  0  0  0
  1  2  2  0  0  0  0
  1 13  1  0  0  0  0
  3  1  1  0  0  0  0
  4  3  2  0  0  0  0
  5 10  1  0  0  0  0
  5  4  1  0  0  0  0
  6  5  2  0  0  0  0
  7  8  2  0  0  0  0
  7  6  1  0  0  0  0
  8  9  1  0  0  0  0
  9 10  2  0  0  0  0
 11  8  1  0  0  0  0
 12 11  1  0  0  0  0
 13 14  1  0  0  0  0
 14 17  1  6  0  0  0
 14 15  1  0  0  0  0
 16 15  1  0  0  0  0
 17 18  1  0  0  0  0
 19 20  1  0  0  0  0
 20 18  1  0  0  0  0
M  END
>  <MODEL>
6

>  <REMARK>
 VINA RESULT:      -3.7     11.772     14.534
  Name = bg33_3_ligand
  12 active torsions:
  status: ('A' for Active; 'I' for Inactive)
    1  A    between atoms: C_1  and  C_2
    2  A    between atoms: C_2  and  C_3
    3  A    between atoms: C_3  and  C_4
    4  A    between atoms: C_4  and  C_5
    5  A    between atoms: C_5  and  C_6
    6  A    between atoms: C_5  and  O_8
    7  A    between atoms: C_6  and  C_7
    8  A    between atoms: O_8  and  C_9
    9  A    between atoms: C_9  and  C_11
   10  A    between atoms: C_12  and  C_13
   11  A    between atoms: C_16  and  O_17
   12  A    between atoms: O_17  and  C_18
                            x       y       z     vdW  Elec       q    Type
                         _______ _______ _______ _____ _____    ______ ____

>  <TORSDO>
F 9

$$$$
bg33_3_ligand
 OpenBabel10092621153D

 20 20  0  0  1  0  0  0  0  0999 V2000
    0.3560    8.6850    6.5010 C   0  0  0  0  0  0  0  0  0  0  0  0
    0.3930    7.4810    6.6040 O   0  0  0  0  0  0  0  0  0  0  0  0
    0.4230    9.3960    5.1080 C   0  0  0  0  0  3  0  0  0  0  0  0
   -0.5010    9.0800    4.1720 C   0  0  0  0  0  3  0  0  0  0  0  0
   -0.4500    9.6150    2.8360 C   0  0  0  0  0  0  0  0  0  0  0  0
    0.0020   10.8930    2.5940 C   0  0  0  0  0  3  0  0  0  0  0  0
    0.1070   11.3990    1.3490 C   0  0  0  0  0  3  0  0  0  0  0  0
   -0.2580   10.6000    0.2890 C   0  0  0  0  0  0  0  0  0  0  0  0
   -0.7430    9.3460    0.4920 C   0  0  0  0  0  3  0  0  0  0  0  0
   -0.8310    8.8490    1.7750 C   0  0  0  0  0  3  0  0  0  0  0  0
   -0.2200   11.0430   -0.9850 O   0  0  0  0  0  0  0  0  0  0  0  0
   -1.3130   11.8500   -1.3880 C   0  0  0  0  0  1  0  0  0  0  0  0
    0.2890    9.3560    7.5710 O   0  0  0  0  0  0  0  0  0  0  0  0
   -1.0220    9.8740    7.9600 C   0  0  2  0  0  3  0  0  0  0  0  0
   -2.0450    8.9530    7.4780 C   0  0  0  0  0  2  0  0  0  0  0  0
   -2.6110    8.0740    8.5520 C   0  0  0  0  0  1  0  0  0  0  0  0
   -1.2500   11.2560    7.3780 C   0  0  0  0  0  2  0  0  0  0  0  0
   -2.5420   11.1980    6.5330 C   0  0  0  0  0  2  0  0  0  0  0  0
   -3.3960   11.4270    4.2280 C   0  0  0  0  0  1  0  0  0  0  0  0
   -2.4710   12.0430    5.3000 C   0  0  0  0  0  2  0  0  0  0  0  0
  1  2  2  0  0  0  0
  1 13  1  0  0  0  0
  3  1  1  0  0  0  0
  4  3  2  0  0  0  0
  5  4  1  0  0  0  0
  6  5  1  0  0  0  0
  7  6  2  0  0  0  0
  8  9  2  0  0  0  0
  8  7  1  0  0  0  0
  9 10  1  0  0  0  0
 10  5  2  0  0  0  0
 11  8  1  0  0  0  0
 12 11  1  0  0  0  0
 13 14  1  0  0  0  0
 14 17  1  6  0  0  0
 15 14  1  0  0  0  0
 15 16  1  0  0  0  0
 18 17  1  0  0  0  0
 19 20  1  0  0  0  0
 20 18  1  0  0  0  0
M  END
>  <MODEL>
7

>  <REMARK>
 VINA RESULT:      -3.6      3.707      9.350
  Name = bg33_3_ligand
  12 active torsions:
  status: ('A' for Active; 'I' for Inactive)
    1  A    between atoms: C_1  and  C_2
    2  A    between atoms: C_2  and  C_3
    3  A    between atoms: C_3  and  C_4
    4  A    between atoms: C_4  and  C_5
    5  A    between atoms: C_5  and  C_6
    6  A    between atoms: C_5  and  O_8
    7  A    between atoms: C_6  and  C_7
    8  A    between atoms: O_8  and  C_9
    9  A    between atoms: C_9  and  C_11
   10  A    between atoms: C_12  and  C_13
   11  A    between atoms: C_16  and  O_17
   12  A    between atoms: O_17  and  C_18
                            x       y       z     vdW  Elec       q    Type
                         _______ _______ _______ _____ _____    ______ ____

>  <TORSDO>
F 9

$$$$
bg33_3_ligand
 OpenBabel10092621153D

 20 20  0  0  1  0  0  0  0  0999 V2000
   -3.8690   11.5690   -2.3630 C   0  0  0  0  0  0  0  0  0  0  0  0
   -3.6910   12.6420   -2.8930 O   0  0  0  0  0  0  0  0  0  0  0  0
   -3.4710   11.3110   -0.8720 C   0  0  0  0  0  3  0  0  0  0  0  0
   -2.4770   10.4320   -0.6070 C   0  0  0  0  0  3  0  0  0  0  0  0
   -2.1180   10.0660    0.7390 C   0  0  0  0  0  0  0  0  0  0  0  0
   -2.9480   10.3480    1.8020 C   0  0  0  0  0  3  0  0  0  0  0  0
   -2.6590    9.9700    3.0630 C   0  0  0  0  0  3  0  0  0  0  0  0
   -1.4880    9.2830    3.2850 C   0  0  0  0  0  0  0  0  0  0  0  0
   -0.6270    9.0190    2.2650 C   0  0  0  0  0  3  0  0  0  0  0  0
   -0.9510    9.4060    0.9830 C   0  0  0  0  0  3  0  0  0  0  0  0
   -1.1060    8.9030    4.5230 O   0  0  0  0  0  0  0  0  0  0  0  0
   -1.6690    9.6410    5.5940 C   0  0  0  0  0  1  0  0  0  0  0  0
   -4.3660   10.6490   -3.0720 O   0  0  0  0  0  0  0  0  0  0  0  0
   -3.7680   10.4120   -4.3860 C   0  0  2  0  0  3  0  0  0  0  0  0
   -4.8160    9.9710   -5.2980 C   0  0  0  0  0  2  0  0  0  0  0  0
   -4.8310   10.7180   -6.5980 C   0  0  0  0  0  1  0  0  0  0  0  0
   -2.6760    9.3620   -4.3000 C   0  0  0  0  0  2  0  0  0  0  0  0
   -1.3740    9.9990   -4.8330 C   0  0  0  0  0  2  0  0  0  0  0  0
   -1.3600    9.3990   -7.2280 C   0  0  0  0  0  1  0  0  0  0  0  0
   -0.6890    9.1540   -5.8590 C   0  0  0  0  0  2  0  0  0  0  0  0
  1  3  1  0  0  0  0
  2  1  2  0  0  0  0
  3  4  2  0  0  0  0
  4  5  1  0  0  0  0
  5 10  2  0  0  0  0
  5  6  1  0  0  0  0
  6  7  2  0  0  0  0
  7  8  1  0  0  0  0
  8 11  1  0  0  0  0
  9  8  2  0  0  0  0
 10  9  1  0  0  0  0
 11 12  1  0  0  0  0
 13  1  1  0  0  0  0
 14 15  1  6  0  0  0
 14 17  1  0  0  0  0
 14 13  1  0  0  0  0
 16 15  1  0  0  0  0
 18 17  1  0  0  0  0
 19 20  1  0  0  0  0
 20 18  1  0  0  0  0
M  END
>  <MODEL>
8

>  <REMARK>
 VINA RESULT:      -3.6      1.399      2.079
  Name = bg33_3_ligand
  12 active torsions:
  status: ('A' for Active; 'I' for Inactive)
    1  A    between atoms: C_1  and  C_2
    2  A    between atoms: C_2  and  C_3
    3  A    between atoms: C_3  and  C_4
    4  A    between atoms: C_4  and  C_5
    5  A    between atoms: C_5  and  C_6
    6  A    between atoms: C_5  and  O_8
    7  A    between atoms: C_6  and  C_7
    8  A    between atoms: O_8  and  C_9
    9  A    between atoms: C_9  and  C_11
   10  A    between atoms: C_12  and  C_13
   11  A    between atoms: C_16  and  O_17
   12  A    between atoms: O_17  and  C_18
                            x       y       z     vdW  Elec       q    Type
                         _______ _______ _______ _____ _____    ______ ____

>  <TORSDO>
F 9

$$$$
bg33_3_ligand
 OpenBabel10092621153D

 20 20  0  0  1  0  0  0  0  0999 V2000
   -2.2250   11.1280   -3.5460 C   0  0  0  0  0  0  0  0  0  0  0  0
   -3.2070   11.1160   -4.2520 O   0  0  0  0  0  0  0  0  0  0  0  0
   -2.1790   10.3570   -2.1850 C   0  0  0  0  0  3  0  0  0  0  0  0
   -2.3690   11.0510   -1.0390 C   0  0  0  0  0  3  0  0  0  0  0  0
   -2.2450   10.4350    0.2570 C   0  0  0  0  0  0  0  0  0  0  0  0
   -1.2590    9.5080    0.5170 C   0  0  0  0  0  3  0  0  0  0  0  0
   -1.0900    8.9560    1.7350 C   0  0  0  0  0  3  0  0  0  0  0  0
   -1.9430    9.3360    2.7460 C   0  0  0  0  0  0  0  0  0  0  0  0
   -2.9510   10.2200    2.5170 C   0  0  0  0  0  3  0  0  0  0  0  0
   -3.0950   10.7790    1.2650 C   0  0  0  0  0  3  0  0  0  0  0  0
   -1.8670    8.8020    3.9830 O   0  0  0  0  0  0  0  0  0  0  0  0
   -1.7390    9.7290    5.0470 C   0  0  0  0  0  1  0  0  0  0  0  0
   -1.2380   11.8150   -3.9380 O   0  0  0  0  0  0  0  0  0  0  0  0
    0.0750   11.1700   -3.9350 C   0  0  2  0  0  3  0  0  0  0  0  0
    0.9770   11.9640   -3.1090 C   0  0  0  0  0  2  0  0  0  0  0  0
    1.4110   11.2640   -1.8560 C   0  0  0  0  0  1  0  0  0  0  0  0
    0.6230   11.0570   -5.3450 C   0  0  0  0  0  2  0  0  0  0  0  0
    0.7000    9.5540   -5.6960 C   0  0  0  0  0  2  0  0  0  0  0  0
   -0.3390    7.9170   -7.2230 C   0  0  0  0  0  1  0  0  0  0  0  0
   -0.6100    8.9930   -6.1490 C   0  0  0  0  0  2  0  0  0  0  0  0
  1  3  1  0  0  0  0
  2  1  2  0  0  0  0
  3  4  2  0  0  0  0
  4  5  1  0  0  0  0
  5  6  2  0  0  0  0
  5 10  1  0  0  0  0
  6  7  1  0  0  0  0
  7  8  2  0  0  0  0
  8 11  1  0  0  0  0
  9  8  1  0  0  0  0
 10  9  2  0  0  0  0
 11 12  1  0  0  0  0
 13 14  1  0  0  0  0
 13  1  1  0  0  0  0
 14 17  1  6  0  0  0
 14 15  1  0  0  0  0
 15 16  1  0  0  0  0
 18 17  1  0  0  0  0
 19 20  1  0  0  0  0
 20 18  1  0  0  0  0
M  END
>  <MODEL>
9

>  <REMARK>
 VINA RESULT:      -3.6      1.407      2.108
  Name = bg33_3_ligand
  12 active torsions:
  status: ('A' for Active; 'I' for Inactive)
    1  A    between atoms: C_1  and  C_2
    2  A    between atoms: C_2  and  C_3
    3  A    between atoms: C_3  and  C_4
    4  A    between atoms: C_4  and  C_5
    5  A    between atoms: C_5  and  C_6
    6  A    between atoms: C_5  and  O_8
    7  A    between atoms: C_6  and  C_7
    8  A    between atoms: O_8  and  C_9
    9  A    between atoms: C_9  and  C_11
   10  A    between atoms: C_12  and  C_13
   11  A    between atoms: C_16  and  O_17
   12  A    between atoms: O_17  and  C_18
                            x       y       z     vdW  Elec       q    Type
                         _______ _______ _______ _____ _____    ______ ____

>  <TORSDO>
F 9

$$$$
