bgox31_2_pose0_reference
     RDKit          3D

 17 18  0  0  0  0  0  0  0  0999 V2000
  -10.0400   -1.1390    1.8430 C   0  0  0  0  0  0  0  0  0  0  0  0
   -9.7960   -0.1490    0.8750 O   0  0  0  0  0  0  0  0  0  0  0  0
   -8.9610    0.8400    1.2180 C   0  0  0  0  0  0  0  0  0  0  0  0
   -9.0240    2.0460    0.5140 C   0  0  0  0  0  0  0  0  0  0  0  0
   -8.2140    3.0950    0.8690 C   0  0  0  0  0  0  0  0  0  0  0  0
   -7.3480    2.9250    1.9140 C   0  0  0  0  0  0  0  0  0  0  0  0
   -6.4940    4.0960    2.3070 C   0  0  0  0  0  0  0  0  0  0  0  0
   -5.3840    3.8730    2.7040 O   0  0  0  0  0  0  0  0  0  0  0  0
   -6.9190    5.4510    2.1100 C   0  0  0  0  0  0  0  0  0  0  0  0
   -5.9320    6.4010    1.9850 C   0  0  0  0  0  0  0  0  0  0  0  0
   -6.3030    7.7210    1.8590 C   0  0  0  0  0  0  0  0  0  0  0  0
   -7.6390    8.0420    1.8460 C   0  0  0  0  0  0  0  0  0  0  0  0
   -8.5750    7.1340    1.9830 C   0  0  0  0  0  0  0  0  0  0  0  0
   -8.2080    5.8100    2.1000 C   0  0  0  0  0  0  0  0  0  0  0  0
   -7.2450    1.7190    2.5870 C   0  0  0  0  0  0  0  0  0  0  0  0
   -6.3260    1.6050    3.5580 O   0  0  0  0  0  0  0  0  0  0  0  0
   -8.0510    0.6840    2.2220 C   0  0  0  0  0  0  0  0  0  0  0  0
  2  1  1  0
  3  2  1  0
  4  3  1  0
  5  4  2  0
  6  5  1  0
  7  6  1  0
  8  7  2  0
  9  7  1  0
 10  9  2  0
 11 10  1  0
 12 11  2  0
 13 12  1  0
 14 13  2  0
 14  9  1  0
 15  6  2  0
 16 15  1  0
 17 15  1  0
 17  3  2  0
M  END
>  <structure>  (1) 
bgox31_2

>  <pose>  (1) 
0

>  <is_reference>  (1) 
1

>  <rmsd_to_reference_A>  (1) 
0.000

>  <vina_score>  (1) 


$$$$
