ox1_orig_f12_ligand
     RDKit          3D

 29 30  0  0  0  0  0  0  0  0999 V2000
   -4.3496   -5.4206   -0.1211 C   0  0  0  0  0  0  0  0  0  0  0  0
   -3.6211   -5.6353    1.0659 O   0  0  0  0  0  0  0  0  0  0  0  0
   -3.1213   -4.5670    1.7616 C   0  0  0  0  0  0  0  0  0  0  0  0
   -2.4705   -4.8175    2.9651 C   0  0  0  0  0  0  0  0  0  0  0  0
   -1.9463   -3.7637    3.7006 C   0  0  0  0  0  0  0  0  0  0  0  0
   -2.0547   -2.4544    3.2400 C   0  0  0  0  0  0  0  0  0  0  0  0
   -1.4968   -1.2956    4.0225 C   0  0  0  0  0  0  0  0  0  0  0  0
   -1.7380   -0.1739    3.6267 O   0  0  0  0  0  0  0  0  0  0  0  0
   -0.7067   -1.4612    5.2640 C   0  0  0  0  0  0  0  0  0  0  0  0
    0.2926   -2.4201    5.3710 C   0  0  0  0  0  0  0  0  0  0  0  0
    1.0089   -2.5601    6.5380 C   0  0  0  0  0  0  0  0  0  0  0  0
    0.7392   -1.7399    7.6222 C   0  0  0  0  0  0  0  0  0  0  0  0
   -0.2435   -0.7643    7.5257 C   0  0  0  0  0  0  0  0  0  0  0  0
   -0.9598   -0.6024    6.3425 C   0  0  0  0  0  0  0  0  0  0  0  0
   -2.7124   -2.2101    2.0392 C   0  0  0  0  0  0  0  0  0  0  0  0
   -2.8273   -0.9310    1.6018 O   0  0  0  0  0  0  0  0  0  0  0  0
   -3.2430   -3.2636    1.3124 C   0  0  0  0  0  0  0  0  0  0  0  0
   -3.6775   -5.0260   -0.8974 H   0  0  0  0  0  0  0  0  0  0  0  0
   -4.7844   -6.3720   -0.4616 H   0  0  0  0  0  0  0  0  0  0  0  0
   -5.1553   -4.6963    0.0690 H   0  0  0  0  0  0  0  0  0  0  0  0
   -2.3715   -5.8492    3.3334 H   0  0  0  0  0  0  0  0  0  0  0  0
   -1.4404   -3.9651    4.6564 H   0  0  0  0  0  0  0  0  0  0  0  0
    0.5137   -3.0742    4.5146 H   0  0  0  0  0  0  0  0  0  0  0  0
    1.7968   -3.3242    6.6104 H   0  0  0  0  0  0  0  0  0  0  0  0
    1.3034   -1.8622    8.5586 H   0  0  0  0  0  0  0  0  0  0  0  0
   -0.4574   -0.1157    8.3880 H   0  0  0  0  0  0  0  0  0  0  0  0
   -1.7166    0.1912    6.2552 H   0  0  0  0  0  0  0  0  0  0  0  0
   -3.2924   -0.7393    0.7492 H   0  0  0  0  0  0  0  0  0  0  0  0
   -3.7676   -3.0614    0.3668 H   0  0  0  0  0  0  0  0  0  0  0  0
  2  1  1  0
  3  2  1  0
  4  3  1  0
  5  4  2  0
  6  5  1  0
  7  6  1  0
  8  7  2  0
  9  7  1  0
 10  9  2  0
 11 10  1  0
 12 11  2  0
 13 12  1  0
 14 13  2  0
 14  9  1  0
 15  6  2  0
 16 15  1  0
 17 15  1  0
 17  3  2  0
  1 18  1  0
  1 19  1  0
  1 20  1  0
  4 21  1  0
  5 22  1  0
 10 23  1  0
 11 24  1  0
 12 25  1  0
 13 26  1  0
 14 27  1  0
 16 28  1  0
 17 29  1  0
M  END
$$$$
