ox1_orig_f12_ligand
 OpenBabel10092621193D

 18 19  0  0  0  0  0  0  0  0999 V2000
    7.9830    3.4060    2.8500 C   0  0  0  0  0  0  0  0  0  0  0  0
    8.9750    3.2320    1.8920 C   0  0  0  0  0  3  0  0  0  0  0  0
    8.7110    2.4910    0.7490 C   0  0  0  0  0  3  0  0  0  0  0  0
    7.4620    1.9070    0.5550 C   0  0  0  0  0  0  0  0  0  0  0  0
    6.4720    2.0890    1.5150 C   0  0  0  0  0  0  0  0  0  0  0  0
    6.7360    2.8380    2.6510 C   0  0  0  0  0  3  0  0  0  0  0  0
    7.2580    4.5460    4.8400 C   0  0  0  0  0  1  0  0  0  0  0  0
    8.2860    4.1410    3.9650 O   0  0  0  0  0  0  0  0  0  0  0  0
    7.1520    1.1010   -0.6770 C   0  0  0  0  0  0  0  0  0  0  0  0
    7.1420   -0.1080   -0.5790 O   0  0  0  0  0  0  0  0  0  0  0  0
    6.8220    1.7140   -1.9850 C   0  0  0  0  0  0  0  0  0  0  0  0
    7.8130    2.1150   -2.8740 C   0  0  0  0  0  3  0  0  0  0  0  0
    7.4830    2.6890   -4.0800 C   0  0  0  0  0  3  0  0  0  0  0  0
    6.1530    2.8710   -4.4230 C   0  0  0  0  0  3  0  0  0  0  0  0
    5.1500    2.4590   -3.5560 C   0  0  0  0  0  3  0  0  0  0  0  0
    5.4740    1.8600   -2.3410 C   0  0  0  0  0  3  0  0  0  0  0  0
    5.2530    1.5290    1.3150 O   0  0  0  0  0  0  0  0  0  0  0  0
    4.8100    1.6080    0.4320 H   0  0  0  0  0  0  0  0  0  0  0  0
  1  8  1  0  0  0  0
  2  1  2  0  0  0  0
  3  2  1  0  0  0  0
  4  3  2  0  0  0  0
  4  5  1  0  0  0  0
  5  6  2  0  0  0  0
  6  1  1  0  0  0  0
  8  7  1  0  0  0  0
  9 10  2  0  0  0  0
  9  4  1  0  0  0  0
 11  9  1  0  0  0  0
 12 11  2  0  0  0  0
 13 12  1  0  0  0  0
 14 13  2  0  0  0  0
 14 15  1  0  0  0  0
 15 16  2  0  0  0  0
 16 11  1  0  0  0  0
 17  5  1  0  0  0  0
 18 17  1  0  0  0  0
M  END
>  <MODEL>
1

>  <REMARK>
 VINA RESULT:      -6.1      0.000      0.000
  Name = ox1_orig_f12_ligand
  5 active torsions:
  status: ('A' for Active; 'I' for Inactive)
    1  A    between atoms: C_1  and  O_2
    2  A    between atoms: O_2  and  C_3
    3  A    between atoms: C_6  and  C_7
    4  A    between atoms: C_7  and  C_9
    5  A    between atoms: C_15  and  O_16
                            x       y       z     vdW  Elec       q    Type
                         _______ _______ _______ _____ _____    ______ ____

>  <TORSDO>
F 4

$$$$
ox1_orig_f12_ligand
 OpenBabel10092621193D

 18 19  0  0  0  0  0  0  0  0999 V2000
    7.2210    3.2820    2.9530 C   0  0  0  0  0  0  0  0  0  0  0  0
    5.9790    2.8130    2.5390 C   0  0  0  0  0  3  0  0  0  0  0  0
    5.8690    2.0940    1.3570 C   0  0  0  0  0  3  0  0  0  0  0  0
    6.9930    1.8460    0.5720 C   0  0  0  0  0  0  0  0  0  0  0  0
    8.2320    2.3130    0.9940 C   0  0  0  0  0  0  0  0  0  0  0  0
    8.3390    3.0220    2.1800 C   0  0  0  0  0  3  0  0  0  0  0  0
    6.9840    3.3550    5.3450 C   0  0  0  0  0  1  0  0  0  0  0  0
    7.2840    3.9900    4.1240 O   0  0  0  0  0  0  0  0  0  0  0  0
    6.8980    1.0660   -0.7120 C   0  0  0  0  0  0  0  0  0  0  0  0
    7.1340   -0.1240   -0.6730 O   0  0  0  0  0  0  0  0  0  0  0  0
    6.4950    1.6720   -2.0020 C   0  0  0  0  0  0  0  0  0  0  0  0
    5.1660    1.9610   -2.2890 C   0  0  0  0  0  3  0  0  0  0  0  0
    4.8150    2.5170   -3.4980 C   0  0  0  0  0  3  0  0  0  0  0  0
    5.7880    2.7980   -4.4430 C   0  0  0  0  0  3  0  0  0  0  0  0
    7.1220    2.5340   -4.1650 C   0  0  0  0  0  3  0  0  0  0  0  0
    7.4900    1.9890   -2.9380 C   0  0  0  0  0  3  0  0  0  0  0  0
    9.3250    2.0560    0.2320 O   0  0  0  0  0  0  0  0  0  0  0  0
   10.1890    2.4900    0.4440 H   0  0  0  0  0  0  0  0  0  0  0  0
  1  8  1  0  0  0  0
  2  1  1  0  0  0  0
  3  2  2  0  0  0  0
  4  5  2  0  0  0  0
  4  3  1  0  0  0  0
  5  6  1  0  0  0  0
  6  1  2  0  0  0  0
  8  7  1  0  0  0  0
  9 10  2  0  0  0  0
  9  4  1  0  0  0  0
 11  9  1  0  0  0  0
 12 11  1  0  0  0  0
 13 12  2  0  0  0  0
 14 15  2  0  0  0  0
 14 13  1  0  0  0  0
 15 16  1  0  0  0  0
 16 11  2  0  0  0  0
 17 18  1  0  0  0  0
 17  5  1  0  0  0  0
M  END
>  <MODEL>
2

>  <REMARK>
 VINA RESULT:      -5.5      0.984      2.029
  Name = ox1_orig_f12_ligand
  5 active torsions:
  status: ('A' for Active; 'I' for Inactive)
    1  A    between atoms: C_1  and  O_2
    2  A    between atoms: O_2  and  C_3
    3  A    between atoms: C_6  and  C_7
    4  A    between atoms: C_7  and  C_9
    5  A    between atoms: C_15  and  O_16
                            x       y       z     vdW  Elec       q    Type
                         _______ _______ _______ _____ _____    ______ ____

>  <TORSDO>
F 4

$$$$
ox1_orig_f12_ligand
 OpenBabel10092621193D

 18 19  0  0  0  0  0  0  0  0999 V2000
    4.4070    6.8320    2.9210 C   0  0  0  0  0  0  0  0  0  0  0  0
    5.7870    6.8740    2.7570 C   0  0  0  0  0  3  0  0  0  0  0  0
    6.5210    5.6970    2.7690 C   0  0  0  0  0  3  0  0  0  0  0  0
    5.8900    4.4690    2.9570 C   0  0  0  0  0  0  0  0  0  0  0  0
    4.5090    4.4340    3.1160 C   0  0  0  0  0  0  0  0  0  0  0  0
    3.7780    5.6110    3.0920 C   0  0  0  0  0  3  0  0  0  0  0  0
    2.3400    8.0260    2.6180 C   0  0  0  0  0  1  0  0  0  0  0  0
    3.7200    8.0170    2.9050 O   0  0  0  0  0  0  0  0  0  0  0  0
    6.6650    3.1800    2.9720 C   0  0  0  0  0  0  0  0  0  0  0  0
    6.8430    2.6350    4.0420 O   0  0  0  0  0  0  0  0  0  0  0  0
    7.1830    2.5300    1.7450 C   0  0  0  0  0  0  0  0  0  0  0  0
    8.5120    2.6570    1.3580 C   0  0  0  0  0  3  0  0  0  0  0  0
    8.9680    2.0500    0.2100 C   0  0  0  0  0  3  0  0  0  0  0  0
    8.1030    1.3020   -0.5730 C   0  0  0  0  0  3  0  0  0  0  0  0
    6.7780    1.1490   -0.1900 C   0  0  0  0  0  3  0  0  0  0  0  0
    6.3110    1.7440    0.9800 C   0  0  0  0  0  3  0  0  0  0  0  0
    3.8980    3.2350    3.2850 O   0  0  0  0  0  0  0  0  0  0  0  0
    3.7170    2.8960    4.1980 H   0  0  0  0  0  0  0  0  0  0  0  0
  1  6  1  0  0  0  0
  2  3  1  0  0  0  0
  2  1  2  0  0  0  0
  3  4  2  0  0  0  0
  4  9  1  0  0  0  0
  4  5  1  0  0  0  0
  5 17  1  0  0  0  0
  6  5  2  0  0  0  0
  7  8  1  0  0  0  0
  8  1  1  0  0  0  0
  9 10  2  0  0  0  0
 11  9  1  0  0  0  0
 12 11  1  0  0  0  0
 13 12  2  0  0  0  0
 14 15  2  0  0  0  0
 14 13  1  0  0  0  0
 15 16  1  0  0  0  0
 16 11  2  0  0  0  0
 17 18  1  0  0  0  0
M  END
>  <MODEL>
3

>  <REMARK>
 VINA RESULT:      -5.3      3.044      4.523
  Name = ox1_orig_f12_ligand
  5 active torsions:
  status: ('A' for Active; 'I' for Inactive)
    1  A    between atoms: C_1  and  O_2
    2  A    between atoms: O_2  and  C_3
    3  A    between atoms: C_6  and  C_7
    4  A    between atoms: C_7  and  C_9
    5  A    between atoms: C_15  and  O_16
                            x       y       z     vdW  Elec       q    Type
                         _______ _______ _______ _____ _____    ______ ____

>  <TORSDO>
F 4

$$$$
ox1_orig_f12_ligand
 OpenBabel10092621193D

 18 19  0  0  0  0  0  0  0  0999 V2000
    6.6380    1.4790   -1.0650 C   0  0  0  0  0  0  0  0  0  0  0  0
    7.7280    1.5640   -1.9230 C   0  0  0  0  0  3  0  0  0  0  0  0
    7.5430    1.9500   -3.2420 C   0  0  0  0  0  3  0  0  0  0  0  0
    6.2690    2.2440   -3.7230 C   0  0  0  0  0  0  0  0  0  0  0  0
    5.1830    2.1620   -2.8580 C   0  0  0  0  0  0  0  0  0  0  0  0
    5.3740    1.7860   -1.5380 C   0  0  0  0  0  3  0  0  0  0  0  0
    6.2930    1.8200    1.2910 C   0  0  0  0  0  1  0  0  0  0  0  0
    6.8640    1.0920    0.2290 O   0  0  0  0  0  0  0  0  0  0  0  0
    6.0440    2.6670   -5.1490 C   0  0  0  0  0  0  0  0  0  0  0  0
    5.6740    1.8250   -5.9410 O   0  0  0  0  0  0  0  0  0  0  0  0
    6.2130    4.0620   -5.6180 C   0  0  0  0  0  0  0  0  0  0  0  0
    7.3860    4.7720   -5.3880 C   0  0  0  0  0  3  0  0  0  0  0  0
    7.5180    6.0690   -5.8270 C   0  0  0  0  0  3  0  0  0  0  0  0
    6.4770    6.6830   -6.5070 C   0  0  0  0  0  3  0  0  0  0  0  0
    5.3070    5.9820   -6.7610 C   0  0  0  0  0  3  0  0  0  0  0  0
    5.1710    4.6620   -6.3380 C   0  0  0  0  0  3  0  0  0  0  0  0
    3.9460    2.4630   -3.3280 O   0  0  0  0  0  0  0  0  0  0  0  0
    3.8100    2.6230   -4.2950 H   0  0  0  0  0  0  0  0  0  0  0  0
  1  8  1  0  0  0  0
  2  1  2  0  0  0  0
  3  2  1  0  0  0  0
  4  3  2  0  0  0  0
  4  5  1  0  0  0  0
  5  6  2  0  0  0  0
  6  1  1  0  0  0  0
  8  7  1  0  0  0  0
  9  4  1  0  0  0  0
 10  9  2  0  0  0  0
 11 12  1  0  0  0  0
 11  9  1  0  0  0  0
 13 12  2  0  0  0  0
 14 13  1  0  0  0  0
 15 14  2  0  0  0  0
 15 16  1  0  0  0  0
 16 11  2  0  0  0  0
 17  5  1  0  0  0  0
 18 17  1  0  0  0  0
M  END
>  <MODEL>
4

>  <REMARK>
 VINA RESULT:      -5.3      2.776      4.601
  Name = ox1_orig_f12_ligand
  5 active torsions:
  status: ('A' for Active; 'I' for Inactive)
    1  A    between atoms: C_1  and  O_2
    2  A    between atoms: O_2  and  C_3
    3  A    between atoms: C_6  and  C_7
    4  A    between atoms: C_7  and  C_9
    5  A    between atoms: C_15  and  O_16
                            x       y       z     vdW  Elec       q    Type
                         _______ _______ _______ _____ _____    ______ ____

>  <TORSDO>
F 4

$$$$
ox1_orig_f12_ligand
 OpenBabel10092621193D

 18 19  0  0  0  0  0  0  0  0999 V2000
    8.4300    1.2810   -0.5470 C   0  0  0  0  0  0  0  0  0  0  0  0
    9.1730    2.1730    0.2170 C   0  0  0  0  0  3  0  0  0  0  0  0
    8.5970    2.7890    1.3190 C   0  0  0  0  0  3  0  0  0  0  0  0
    7.2720    2.5320    1.6620 C   0  0  0  0  0  0  0  0  0  0  0  0
    6.5350    1.6340    0.8960 C   0  0  0  0  0  0  0  0  0  0  0  0
    7.1180    1.0130   -0.1970 C   0  0  0  0  0  3  0  0  0  0  0  0
    8.9260    1.2910   -2.9010 C   0  0  0  0  0  1  0  0  0  0  0  0
    9.0360    0.6970   -1.6270 O   0  0  0  0  0  0  0  0  0  0  0  0
    6.6260    3.1860    2.8530 C   0  0  0  0  0  0  0  0  0  0  0  0
    6.7250    2.6320    3.9290 O   0  0  0  0  0  0  0  0  0  0  0  0
    5.9160    4.4830    2.7810 C   0  0  0  0  0  0  0  0  0  0  0  0
    4.5350    4.5530    2.6450 C   0  0  0  0  0  3  0  0  0  0  0  0
    3.8970    5.7700    2.5720 C   0  0  0  0  0  3  0  0  0  0  0  0
    4.6310    6.9440    2.6360 C   0  0  0  0  0  3  0  0  0  0  0  0
    6.0090    6.8930    2.7920 C   0  0  0  0  0  3  0  0  0  0  0  0
    6.6610    5.6660    2.8850 C   0  0  0  0  0  3  0  0  0  0  0  0
    5.2490    1.3770    1.2430 O   0  0  0  0  0  0  0  0  0  0  0  0
    4.8140    1.9070    1.9580 H   0  0  0  0  0  0  0  0  0  0  0  0
  1  6  2  0  0  0  0
  1  2  1  0  0  0  0
  2  3  2  0  0  0  0
  3  4  1  0  0  0  0
  4  9  1  0  0  0  0
  5 17  1  0  0  0  0
  5  4  2  0  0  0  0
  6  5  1  0  0  0  0
  7  8  1  0  0  0  0
  8  1  1  0  0  0  0
  9 10  2  0  0  0  0
 11  9  1  0  0  0  0
 11 16  1  0  0  0  0
 12 11  2  0  0  0  0
 13 14  2  0  0  0  0
 13 12  1  0  0  0  0
 14 15  1  0  0  0  0
 15 16  2  0  0  0  0
 17 18  1  0  0  0  0
M  END
>  <MODEL>
5

>  <REMARK>
 VINA RESULT:      -5.2      2.151      5.500
  Name = ox1_orig_f12_ligand
  5 active torsions:
  status: ('A' for Active; 'I' for Inactive)
    1  A    between atoms: C_1  and  O_2
    2  A    between atoms: O_2  and  C_3
    3  A    between atoms: C_6  and  C_7
    4  A    between atoms: C_7  and  C_9
    5  A    between atoms: C_15  and  O_16
                            x       y       z     vdW  Elec       q    Type
                         _______ _______ _______ _____ _____    ______ ____

>  <TORSDO>
F 4

$$$$
ox1_orig_f12_ligand
 OpenBabel10092621193D

 18 19  0  0  0  0  0  0  0  0999 V2000
    6.7010    1.3840   -0.8300 C   0  0  0  0  0  0  0  0  0  0  0  0
    5.4430    1.7400   -1.3040 C   0  0  0  0  0  3  0  0  0  0  0  0
    5.2580    1.9930   -2.6550 C   0  0  0  0  0  3  0  0  0  0  0  0
    6.3250    1.9060   -3.5450 C   0  0  0  0  0  0  0  0  0  0  0  0
    7.5800    1.5440   -3.0670 C   0  0  0  0  0  0  0  0  0  0  0  0
    7.7580    1.2820   -1.7180 C   0  0  0  0  0  3  0  0  0  0  0  0
    6.2310    2.0050    1.4450 C   0  0  0  0  0  1  0  0  0  0  0  0
    6.8410    1.1450    0.5110 O   0  0  0  0  0  0  0  0  0  0  0  0
    6.1470    2.1740   -5.0150 C   0  0  0  0  0  0  0  0  0  0  0  0
    6.2290    1.2340   -5.7790 O   0  0  0  0  0  0  0  0  0  0  0  0
    5.8400    3.5140   -5.5650 C   0  0  0  0  0  0  0  0  0  0  0  0
    4.6170    3.7960   -6.1600 C   0  0  0  0  0  3  0  0  0  0  0  0
    4.3560    5.0480   -6.6710 C   0  0  0  0  0  3  0  0  0  0  0  0
    5.3170    6.0440   -6.5930 C   0  0  0  0  0  3  0  0  0  0  0  0
    6.5370    5.7850   -5.9840 C   0  0  0  0  0  3  0  0  0  0  0  0
    6.8020    4.5270   -5.4480 C   0  0  0  0  0  3  0  0  0  0  0  0
    8.6130    1.4470   -3.9410 O   0  0  0  0  0  0  0  0  0  0  0  0
    9.1040    0.5920   -4.0350 H   0  0  0  0  0  0  0  0  0  0  0  0
  1  8  1  0  0  0  0
  2  1  1  0  0  0  0
  3  2  2  0  0  0  0
  4  5  2  0  0  0  0
  4  3  1  0  0  0  0
  5  6  1  0  0  0  0
  6  1  2  0  0  0  0
  8  7  1  0  0  0  0
  9  4  1  0  0  0  0
 10  9  2  0  0  0  0
 11 16  1  0  0  0  0
 11  9  1  0  0  0  0
 12 11  2  0  0  0  0
 13 14  2  0  0  0  0
 13 12  1  0  0  0  0
 14 15  1  0  0  0  0
 15 16  2  0  0  0  0
 17  5  1  0  0  0  0
 18 17  1  0  0  0  0
M  END
>  <MODEL>
6

>  <REMARK>
 VINA RESULT:      -5.2      2.496      4.719
  Name = ox1_orig_f12_ligand
  5 active torsions:
  status: ('A' for Active; 'I' for Inactive)
    1  A    between atoms: C_1  and  O_2
    2  A    between atoms: O_2  and  C_3
    3  A    between atoms: C_6  and  C_7
    4  A    between atoms: C_7  and  C_9
    5  A    between atoms: C_15  and  O_16
                            x       y       z     vdW  Elec       q    Type
                         _______ _______ _______ _____ _____    ______ ____

>  <TORSDO>
F 4

$$$$
ox1_orig_f12_ligand
 OpenBabel10092621193D

 18 19  0  0  0  0  0  0  0  0999 V2000
    8.0240    1.2300   -0.7140 C   0  0  0  0  0  0  0  0  0  0  0  0
    6.6870    1.0820   -0.3630 C   0  0  0  0  0  3  0  0  0  0  0  0
    6.2000    1.6940    0.7830 C   0  0  0  0  0  3  0  0  0  0  0  0
    7.0430    2.4490    1.5960 C   0  0  0  0  0  0  0  0  0  0  0  0
    8.3780    2.5980    1.2360 C   0  0  0  0  0  0  0  0  0  0  0  0
    8.8580    1.9930    0.0850 C   0  0  0  0  0  3  0  0  0  0  0  0
    9.3300    1.2830   -2.7330 C   0  0  0  0  0  1  0  0  0  0  0  0
    8.4650    0.6060   -1.8510 O   0  0  0  0  0  0  0  0  0  0  0  0
    6.5360    3.1250    2.8410 C   0  0  0  0  0  0  0  0  0  0  0  0
    6.7610    2.5930    3.9090 O   0  0  0  0  0  0  0  0  0  0  0  0
    5.8160    4.4190    2.8270 C   0  0  0  0  0  0  0  0  0  0  0  0
    4.4380    4.4860    2.6610 C   0  0  0  0  0  3  0  0  0  0  0  0
    3.7920    5.7010    2.6440 C   0  0  0  0  0  3  0  0  0  0  0  0
    4.5130    6.8750    2.7940 C   0  0  0  0  0  3  0  0  0  0  0  0
    5.8880    6.8250    2.9800 C   0  0  0  0  0  3  0  0  0  0  0  0
    6.5490    5.6000    3.0180 C   0  0  0  0  0  3  0  0  0  0  0  0
    9.1900    3.3460    2.0240 O   0  0  0  0  0  0  0  0  0  0  0  0
    9.9060    3.8960    1.6170 H   0  0  0  0  0  0  0  0  0  0  0  0
  1  2  2  0  0  0  0
  1  6  1  0  0  0  0
  2  3  1  0  0  0  0
  3  4  2  0  0  0  0
  4  9  1  0  0  0  0
  5  4  1  0  0  0  0
  5 17  1  0  0  0  0
  6  5  2  0  0  0  0
  7  8  1  0  0  0  0
  8  1  1  0  0  0  0
  9 10  2  0  0  0  0
 11  9  1  0  0  0  0
 11 16  1  0  0  0  0
 12 11  2  0  0  0  0
 13 12  1  0  0  0  0
 13 14  2  0  0  0  0
 14 15  1  0  0  0  0
 15 16  2  0  0  0  0
 18 17  1  0  0  0  0
M  END
>  <MODEL>
7

>  <REMARK>
 VINA RESULT:      -4.6      2.186      5.755
  Name = ox1_orig_f12_ligand
  5 active torsions:
  status: ('A' for Active; 'I' for Inactive)
    1  A    between atoms: C_1  and  O_2
    2  A    between atoms: O_2  and  C_3
    3  A    between atoms: C_6  and  C_7
    4  A    between atoms: C_7  and  C_9
    5  A    between atoms: C_15  and  O_16
                            x       y       z     vdW  Elec       q    Type
                         _______ _______ _______ _____ _____    ______ ____

>  <TORSDO>
F 4

$$$$
ox1_orig_f12_ligand
 OpenBabel10092621193D

 18 19  0  0  0  0  0  0  0  0999 V2000
    6.0190    1.8390   -2.3530 C   0  0  0  0  0  0  0  0  0  0  0  0
    4.7770    2.3020   -2.7750 C   0  0  0  0  0  3  0  0  0  0  0  0
    4.6330    2.8360   -4.0470 C   0  0  0  0  0  3  0  0  0  0  0  0
    5.7260    2.9260   -4.9060 C   0  0  0  0  0  0  0  0  0  0  0  0
    6.9640    2.4560   -4.4800 C   0  0  0  0  0  0  0  0  0  0  0  0
    7.1010    1.9140   -3.2120 C   0  0  0  0  0  3  0  0  0  0  0  0
    7.3790    1.2210   -0.4680 C   0  0  0  0  0  1  0  0  0  0  0  0
    6.1180    1.3220   -1.0890 O   0  0  0  0  0  0  0  0  0  0  0  0
    5.5940    3.4990   -6.2910 C   0  0  0  0  0  0  0  0  0  0  0  0
    5.5290    2.7240   -7.2230 O   0  0  0  0  0  0  0  0  0  0  0  0
    5.4990    4.9520   -6.5630 C   0  0  0  0  0  0  0  0  0  0  0  0
    6.6190    5.7740   -6.5350 C   0  0  0  0  0  3  0  0  0  0  0  0
    6.5060    7.1230   -6.7830 C   0  0  0  0  0  3  0  0  0  0  0  0
    5.2680    7.6760   -7.0660 C   0  0  0  0  0  3  0  0  0  0  0  0
    4.1410    6.8670   -7.1170 C   0  0  0  0  0  3  0  0  0  0  0  0
    4.2490    5.4970   -6.8860 C   0  0  0  0  0  3  0  0  0  0  0  0
    8.0220    2.5330   -5.3260 O   0  0  0  0  0  0  0  0  0  0  0  0
    8.3530    3.4170   -5.6250 H   0  0  0  0  0  0  0  0  0  0  0  0
  1  8  1  0  0  0  0
  2  1  1  0  0  0  0
  3  2  2  0  0  0  0
  4  5  2  0  0  0  0
  4  3  1  0  0  0  0
  5  6  1  0  0  0  0
  6  1  2  0  0  0  0
  8  7  1  0  0  0  0
  9  4  1  0  0  0  0
 10  9  2  0  0  0  0
 11 12  1  0  0  0  0
 11  9  1  0  0  0  0
 13 12  2  0  0  0  0
 14 13  1  0  0  0  0
 15 14  2  0  0  0  0
 15 16  1  0  0  0  0
 16 11  2  0  0  0  0
 17  5  1  0  0  0  0
 18 17  1  0  0  0  0
M  END
>  <MODEL>
8

>  <REMARK>
 VINA RESULT:      -4.5      3.572      6.099
  Name = ox1_orig_f12_ligand
  5 active torsions:
  status: ('A' for Active; 'I' for Inactive)
    1  A    between atoms: C_1  and  O_2
    2  A    between atoms: O_2  and  C_3
    3  A    between atoms: C_6  and  C_7
    4  A    between atoms: C_7  and  C_9
    5  A    between atoms: C_15  and  O_16
                            x       y       z     vdW  Elec       q    Type
                         _______ _______ _______ _____ _____    ______ ____

>  <TORSDO>
F 4

$$$$
ox1_orig_f12_ligand
 OpenBabel10092621193D

 18 19  0  0  0  0  0  0  0  0999 V2000
   -5.8900   -0.4590   -4.4260 C   0  0  0  0  0  0  0  0  0  0  0  0
   -6.6880    0.1540   -3.4660 C   0  0  0  0  0  3  0  0  0  0  0  0
   -6.2910    1.3580   -2.9020 C   0  0  0  0  0  3  0  0  0  0  0  0
   -5.0910    1.9560   -3.2790 C   0  0  0  0  0  0  0  0  0  0  0  0
   -4.3000    1.3400   -4.2430 C   0  0  0  0  0  0  0  0  0  0  0  0
   -4.7050    0.1430   -4.8120 C   0  0  0  0  0  3  0  0  0  0  0  0
   -7.5590   -2.1860   -4.5610 C   0  0  0  0  0  1  0  0  0  0  0  0
   -6.3180   -1.6480   -4.9550 O   0  0  0  0  0  0  0  0  0  0  0  0
   -4.6410    3.2620   -2.6830 C   0  0  0  0  0  0  0  0  0  0  0  0
   -4.4890    4.2060   -3.4310 O   0  0  0  0  0  0  0  0  0  0  0  0
   -4.4150    3.4570   -1.2320 C   0  0  0  0  0  0  0  0  0  0  0  0
   -3.2290    3.0700   -0.6200 C   0  0  0  0  0  3  0  0  0  0  0  0
   -3.0450    3.2540    0.7320 C   0  0  0  0  0  3  0  0  0  0  0  0
   -4.0450    3.8320    1.4970 C   0  0  0  0  0  3  0  0  0  0  0  0
   -5.2280    4.2430    0.8980 C   0  0  0  0  0  3  0  0  0  0  0  0
   -5.4160    4.0780   -0.4720 C   0  0  0  0  0  3  0  0  0  0  0  0
   -3.1390    1.9340   -4.6170 O   0  0  0  0  0  0  0  0  0  0  0  0
   -2.3950    1.3860   -4.9730 H   0  0  0  0  0  0  0  0  0  0  0  0
  1  2  1  0  0  0  0
  2  3  2  0  0  0  0
  4  3  1  0  0  0  0
  4  9  1  0  0  0  0
  5  4  2  0  0  0  0
  6  1  2  0  0  0  0
  6  5  1  0  0  0  0
  8  7  1  0  0  0  0
  8  1  1  0  0  0  0
  9 11  1  0  0  0  0
 10  9  2  0  0  0  0
 11 12  2  0  0  0  0
 11 16  1  0  0  0  0
 12 13  1  0  0  0  0
 13 14  2  0  0  0  0
 15 14  1  0  0  0  0
 16 15  2  0  0  0  0
 17  5  1  0  0  0  0
 18 17  1  0  0  0  0
M  END
>  <MODEL>
9

>  <REMARK>
 VINA RESULT:      -4.4     10.926     13.686
  Name = ox1_orig_f12_ligand
  5 active torsions:
  status: ('A' for Active; 'I' for Inactive)
    1  A    between atoms: C_1  and  O_2
    2  A    between atoms: O_2  and  C_3
    3  A    between atoms: C_6  and  C_7
    4  A    between atoms: C_7  and  C_9
    5  A    between atoms: C_15  and  O_16
                            x       y       z     vdW  Elec       q    Type
                         _______ _______ _______ _____ _____    ______ ____

>  <TORSDO>
F 4

$$$$
