bgox31_2_ligand
     RDKit          3D

 29 30  0  0  0  0  0  0  0  0999 V2000
    2.8315   -8.2206   10.0348 C   0  0  0  0  0  0  0  0  0  0  0  0
    2.9601   -7.3196    8.9633 O   0  0  0  0  0  0  0  0  0  0  0  0
    1.8434   -6.7066    8.5506 C   0  0  0  0  0  0  0  0  0  0  0  0
    1.8086   -6.1735    7.2589 C   0  0  0  0  0  0  0  0  0  0  0  0
    0.6650   -5.5789    6.7887 C   0  0  0  0  0  0  0  0  0  0  0  0
   -0.4239   -5.5168    7.6142 C   0  0  0  0  0  0  0  0  0  0  0  0
   -1.6753   -4.8914    7.0686 C   0  0  0  0  0  0  0  0  0  0  0  0
   -2.3653   -4.2650    7.8244 O   0  0  0  0  0  0  0  0  0  0  0  0
   -1.9972   -4.9211    5.6718 C   0  0  0  0  0  0  0  0  0  0  0  0
   -2.8146   -3.9203    5.1999 C   0  0  0  0  0  0  0  0  0  0  0  0
   -3.1968   -3.9530    3.8776 C   0  0  0  0  0  0  0  0  0  0  0  0
   -2.7389   -4.9691    3.0739 C   0  0  0  0  0  0  0  0  0  0  0  0
   -1.9741   -5.9300    3.5335 C   0  0  0  0  0  0  0  0  0  0  0  0
   -1.5814   -5.8958    4.8549 C   0  0  0  0  0  0  0  0  0  0  0  0
   -0.3841   -5.9998    8.9115 C   0  0  0  0  0  0  0  0  0  0  0  0
   -1.4691   -5.8442    9.6854 O   0  0  0  0  0  0  0  0  0  0  0  0
    0.7584   -6.5835    9.3679 C   0  0  0  0  0  0  0  0  0  0  0  0
    1.8210   -8.6553   10.0292 H   0  0  0  0  0  0  0  0  0  0  0  0
    3.5764   -9.0232    9.9304 H   0  0  0  0  0  0  0  0  0  0  0  0
    2.9965   -7.6884   10.9833 H   0  0  0  0  0  0  0  0  0  0  0  0
    2.7006   -6.2308    6.6176 H   0  0  0  0  0  0  0  0  0  0  0  0
    0.6247   -5.1619    5.7716 H   0  0  0  0  0  0  0  0  0  0  0  0
   -3.1550   -3.1121    5.8640 H   0  0  0  0  0  0  0  0  0  0  0  0
   -3.8600   -3.1759    3.4699 H   0  0  0  0  0  0  0  0  0  0  0  0
   -3.0228   -4.9767    2.0112 H   0  0  0  0  0  0  0  0  0  0  0  0
   -1.6511   -6.7502    2.8756 H   0  0  0  0  0  0  0  0  0  0  0  0
   -0.9165   -6.6813    5.2431 H   0  0  0  0  0  0  0  0  0  0  0  0
   -1.4655   -6.1809   10.6164 H   0  0  0  0  0  0  0  0  0  0  0  0
    0.8065   -6.9576   10.4013 H   0  0  0  0  0  0  0  0  0  0  0  0
  2  1  1  0
  3  2  1  0
  4  3  1  0
  5  4  2  0
  6  5  1  0
  7  6  1  0
  8  7  2  0
  9  7  1  0
 10  9  2  0
 11 10  1  0
 12 11  2  0
 13 12  1  0
 14 13  2  0
 14  9  1  0
 15  6  2  0
 16 15  1  0
 17 15  1  0
 17  3  2  0
  1 18  1  0
  1 19  1  0
  1 20  1  0
  4 21  1  0
  5 22  1  0
 10 23  1  0
 11 24  1  0
 12 25  1  0
 13 26  1  0
 14 27  1  0
 16 28  1  0
 17 29  1  0
M  END
$$$$
