bgox31_2_ligand
 OpenBabel10092621233D

 18 19  0  0  0  0  0  0  0  0999 V2000
   -3.0710   -2.4140    7.8700 C   0  0  0  0  0  0  0  0  0  0  0  0
   -2.8290   -2.4940    6.4950 C   0  0  0  0  0  3  0  0  0  0  0  0
   -3.5880   -1.7600    5.6180 C   0  0  0  0  0  3  0  0  0  0  0  0
   -4.5700   -0.9530    6.1230 C   0  0  0  0  0  0  0  0  0  0  0  0
   -4.7850   -0.8310    7.4870 C   0  0  0  0  0  0  0  0  0  0  0  0
   -4.0220   -1.5600    8.3460 C   0  0  0  0  0  3  0  0  0  0  0  0
   -1.3440   -3.9740    8.1070 C   0  0  0  0  0  1  0  0  0  0  0  0
   -2.3430   -3.1770    8.6940 O   0  0  0  0  0  0  0  0  0  0  0  0
   -5.4090   -0.1830    5.1450 C   0  0  0  0  0  0  0  0  0  0  0  0
   -6.5460   -0.5290    4.9860 O   0  0  0  0  0  0  0  0  0  0  0  0
   -4.9320    1.0050    4.4990 C   0  0  0  0  0  0  0  0  0  0  0  0
   -5.2340    2.2050    5.1010 C   0  0  0  0  0  3  0  0  0  0  0  0
   -4.8470    3.3690    4.4750 C   0  0  0  0  0  3  0  0  0  0  0  0
   -4.1620    3.2940    3.2860 C   0  0  0  0  0  3  0  0  0  0  0  0
   -3.8930    2.1480    2.7090 C   0  0  0  0  0  3  0  0  0  0  0  0
   -4.2700    0.9790    3.3360 C   0  0  0  0  0  3  0  0  0  0  0  0
   -5.7200    0.0310    7.9110 O   0  0  0  0  0  0  0  0  0  0  0  0
   -5.4550    0.8360    8.4230 H   0  0  0  0  0  0  0  0  0  0  0  0
  1  6  1  0  0  0  0
  1  8  1  0  0  0  0
  2  1  2  0  0  0  0
  3  4  2  0  0  0  0
  3  2  1  0  0  0  0
  4  5  1  0  0  0  0
  5 17  1  0  0  0  0
  5  6  2  0  0  0  0
  7  8  1  0  0  0  0
  9  4  1  0  0  0  0
 10  9  2  0  0  0  0
 11 12  1  0  0  0  0
 11  9  1  0  0  0  0
 13 12  2  0  0  0  0
 14 13  1  0  0  0  0
 15 14  2  0  0  0  0
 15 16  1  0  0  0  0
 16 11  2  0  0  0  0
 17 18  1  0  0  0  0
M  END
>  <MODEL>
1

>  <REMARK>
 VINA RESULT:      -4.4      0.000      0.000
  Name = bgox31_2_ligand
  5 active torsions:
  status: ('A' for Active; 'I' for Inactive)
    1  A    between atoms: C_1  and  O_2
    2  A    between atoms: O_2  and  C_3
    3  A    between atoms: C_6  and  C_7
    4  A    between atoms: C_7  and  C_9
    5  A    between atoms: C_15  and  O_16
                            x       y       z     vdW  Elec       q    Type
                         _______ _______ _______ _____ _____    ______ ____

>  <TORSDO>
F 4

$$$$
bgox31_2_ligand
 OpenBabel10092621233D

 18 19  0  0  0  0  0  0  0  0999 V2000
   -4.3760    3.7530    3.4300 C   0  0  0  0  0  0  0  0  0  0  0  0
   -3.7200    2.5890    3.0140 C   0  0  0  0  0  3  0  0  0  0  0  0
   -4.0260    2.0220    1.8030 C   0  0  0  0  0  3  0  0  0  0  0  0
   -4.9710    2.6250    1.0200 C   0  0  0  0  0  0  0  0  0  0  0  0
   -5.5900    3.8040    1.4020 C   0  0  0  0  0  0  0  0  0  0  0  0
   -5.2760    4.3590    2.6040 C   0  0  0  0  0  3  0  0  0  0  0  0
   -2.9800    5.1190    4.7170 C   0  0  0  0  0  1  0  0  0  0  0  0
   -4.0880    4.2560    4.6370 O   0  0  0  0  0  0  0  0  0  0  0  0
   -5.3120    1.9700   -0.2880 C   0  0  0  0  0  0  0  0  0  0  0  0
   -5.1130    2.5890   -1.2950 O   0  0  0  0  0  0  0  0  0  0  0  0
   -5.7490    0.6070   -0.3670 C   0  0  0  0  0  0  0  0  0  0  0  0
   -5.5840   -0.0310   -1.5750 C   0  0  0  0  0  3  0  0  0  0  0  0
   -6.0500   -1.3190   -1.7070 C   0  0  0  0  0  3  0  0  0  0  0  0
   -6.6480   -1.9280   -0.6300 C   0  0  0  0  0  3  0  0  0  0  0  0
   -6.8180   -1.3090    0.5140 C   0  0  0  0  0  3  0  0  0  0  0  0
   -6.3440   -0.0220    0.6540 C   0  0  0  0  0  3  0  0  0  0  0  0
   -6.4580    4.3730    0.5520 O   0  0  0  0  0  0  0  0  0  0  0  0
   -6.1940    4.5410   -0.3870 H   0  0  0  0  0  0  0  0  0  0  0  0
  1  8  1  0  0  0  0
  2  1  1  0  0  0  0
  3  2  2  0  0  0  0
  4  5  2  0  0  0  0
  4  3  1  0  0  0  0
  5  6  1  0  0  0  0
  6  1  2  0  0  0  0
  8  7  1  0  0  0  0
  9  4  1  0  0  0  0
 10  9  2  0  0  0  0
 11  9  1  0  0  0  0
 11 16  1  0  0  0  0
 12 11  2  0  0  0  0
 13 12  1  0  0  0  0
 13 14  2  0  0  0  0
 14 15  1  0  0  0  0
 15 16  2  0  0  0  0
 17  5  1  0  0  0  0
 18 17  1  0  0  0  0
M  END
>  <MODEL>
2

>  <REMARK>
 VINA RESULT:      -4.2      5.185      7.063
  Name = bgox31_2_ligand
  5 active torsions:
  status: ('A' for Active; 'I' for Inactive)
    1  A    between atoms: C_1  and  O_2
    2  A    between atoms: O_2  and  C_3
    3  A    between atoms: C_6  and  C_7
    4  A    between atoms: C_7  and  C_9
    5  A    between atoms: C_15  and  O_16
                            x       y       z     vdW  Elec       q    Type
                         _______ _______ _______ _____ _____    ______ ____

>  <TORSDO>
F 4

$$$$
bgox31_2_ligand
 OpenBabel10092621233D

 18 19  0  0  0  0  0  0  0  0999 V2000
    0.5850   -5.9700   11.8820 C   0  0  0  0  0  0  0  0  0  0  0  0
   -0.7820   -6.0560   11.5990 C   0  0  0  0  0  3  0  0  0  0  0  0
   -1.2260   -5.9470   10.3060 C   0  0  0  0  0  3  0  0  0  0  0  0
   -0.3040   -5.7640    9.3130 C   0  0  0  0  0  0  0  0  0  0  0  0
    1.0550   -5.7270    9.5780 C   0  0  0  0  0  0  0  0  0  0  0  0
    1.4840   -5.8400   10.8640 C   0  0  0  0  0  3  0  0  0  0  0  0
   -0.0010   -5.8240   14.1420 C   0  0  0  0  0  1  0  0  0  0  0  0
    0.9820   -6.0350   13.1590 O   0  0  0  0  0  0  0  0  0  0  0  0
   -0.8140   -5.6160    7.9080 C   0  0  0  0  0  0  0  0  0  0  0  0
   -0.5580   -6.4860    7.1230 O   0  0  0  0  0  0  0  0  0  0  0  0
   -1.6830   -4.5430    7.5210 C   0  0  0  0  0  0  0  0  0  0  0  0
   -2.8010   -4.8790    6.7920 C   0  0  0  0  0  3  0  0  0  0  0  0
   -3.6230   -3.8680    6.3490 C   0  0  0  0  0  3  0  0  0  0  0  0
   -3.3120   -2.5670    6.6600 C   0  0  0  0  0  3  0  0  0  0  0  0
   -2.2350   -2.2510    7.3400 C   0  0  0  0  0  3  0  0  0  0  0  0
   -1.4140   -3.2610    7.7940 C   0  0  0  0  0  3  0  0  0  0  0  0
    1.9040   -5.6120    8.5450 O   0  0  0  0  0  0  0  0  0  0  0  0
    2.8150   -5.2510    8.6910 H   0  0  0  0  0  0  0  0  0  0  0  0
  1  8  1  0  0  0  0
  2  1  1  0  0  0  0
  3  2  2  0  0  0  0
  4  5  2  0  0  0  0
  4  3  1  0  0  0  0
  5  6  1  0  0  0  0
  6  1  2  0  0  0  0
  8  7  1  0  0  0  0
  9  4  1  0  0  0  0
 10  9  2  0  0  0  0
 11 16  1  0  0  0  0
 11  9  1  0  0  0  0
 12 11  2  0  0  0  0
 13 14  2  0  0  0  0
 13 12  1  0  0  0  0
 14 15  1  0  0  0  0
 15 16  2  0  0  0  0
 17 18  1  0  0  0  0
 17  5  1  0  0  0  0
M  END
>  <MODEL>
3

>  <REMARK>
 VINA RESULT:      -4.1      4.811      7.305
  Name = bgox31_2_ligand
  5 active torsions:
  status: ('A' for Active; 'I' for Inactive)
    1  A    between atoms: C_1  and  O_2
    2  A    between atoms: O_2  and  C_3
    3  A    between atoms: C_6  and  C_7
    4  A    between atoms: C_7  and  C_9
    5  A    between atoms: C_15  and  O_16
                            x       y       z     vdW  Elec       q    Type
                         _______ _______ _______ _____ _____    ______ ____

>  <TORSDO>
F 4

$$$$
bgox31_2_ligand
 OpenBabel10092621233D

 18 19  0  0  0  0  0  0  0  0999 V2000
   -4.8720    1.7810    2.4020 C   0  0  0  0  0  0  0  0  0  0  0  0
   -5.6990    0.6550    2.4650 C   0  0  0  0  0  3  0  0  0  0  0  0
   -6.2710    0.1560    1.3220 C   0  0  0  0  0  3  0  0  0  0  0  0
   -6.0030    0.7770    0.1330 C   0  0  0  0  0  0  0  0  0  0  0  0
   -5.1460    1.8630    0.0550 C   0  0  0  0  0  0  0  0  0  0  0  0
   -4.5820    2.3470    1.1960 C   0  0  0  0  0  3  0  0  0  0  0  0
   -3.7350    3.5240    3.4700 C   0  0  0  0  0  1  0  0  0  0  0  0
   -4.3660    2.2700    3.5420 O   0  0  0  0  0  0  0  0  0  0  0  0
   -6.6630    0.2340   -1.1000 C   0  0  0  0  0  0  0  0  0  0  0  0
   -7.5640    0.8640   -1.5800 O   0  0  0  0  0  0  0  0  0  0  0  0
   -6.1760   -0.9340   -1.7750 C   0  0  0  0  0  0  0  0  0  0  0  0
   -5.2670   -0.7330   -2.7890 C   0  0  0  0  0  3  0  0  0  0  0  0
   -4.8260   -1.8260   -3.5010 C   0  0  0  0  0  3  0  0  0  0  0  0
   -5.2930   -3.0750   -3.1680 C   0  0  0  0  0  3  0  0  0  0  0  0
   -6.1730   -3.2570   -2.2120 C   0  0  0  0  0  3  0  0  0  0  0  0
   -6.6100   -2.1680   -1.4900 C   0  0  0  0  0  3  0  0  0  0  0  0
   -4.8780    2.3790   -1.1530 O   0  0  0  0  0  0  0  0  0  0  0  0
   -5.0380    3.3410   -1.3280 H   0  0  0  0  0  0  0  0  0  0  0  0
  1  2  1  0  0  0  0
  1  8  1  0  0  0  0
  3  2  2  0  0  0  0
  4  3  1  0  0  0  0
  5  4  2  0  0  0  0
  5  6  1  0  0  0  0
  6  1  2  0  0  0  0
  7  8  1  0  0  0  0
  9  4  1  0  0  0  0
 10  9  2  0  0  0  0
 11 16  1  0  0  0  0
 11  9  1  0  0  0  0
 12 11  2  0  0  0  0
 13 14  2  0  0  0  0
 13 12  1  0  0  0  0
 14 15  1  0  0  0  0
 15 16  2  0  0  0  0
 17  5  1  0  0  0  0
 18 17  1  0  0  0  0
M  END
>  <MODEL>
4

>  <REMARK>
 VINA RESULT:      -3.9      5.160      7.634
  Name = bgox31_2_ligand
  5 active torsions:
  status: ('A' for Active; 'I' for Inactive)
    1  A    between atoms: C_1  and  O_2
    2  A    between atoms: O_2  and  C_3
    3  A    between atoms: C_6  and  C_7
    4  A    between atoms: C_7  and  C_9
    5  A    between atoms: C_15  and  O_16
                            x       y       z     vdW  Elec       q    Type
                         _______ _______ _______ _____ _____    ______ ____

>  <TORSDO>
F 4

$$$$
bgox31_2_ligand
 OpenBabel10092621233D

 18 19  0  0  0  0  0  0  0  0999 V2000
   -3.7630   -2.6240    7.2830 C   0  0  0  0  0  0  0  0  0  0  0  0
   -3.9360   -2.9830    5.9430 C   0  0  0  0  0  3  0  0  0  0  0  0
   -4.7050   -2.2040    5.1150 C   0  0  0  0  0  3  0  0  0  0  0  0
   -5.2820   -1.0760    5.6310 C   0  0  0  0  0  0  0  0  0  0  0  0
   -5.0770   -0.6880    6.9450 C   0  0  0  0  0  0  0  0  0  0  0  0
   -4.3080   -1.4660    7.7550 C   0  0  0  0  0  3  0  0  0  0  0  0
   -1.6490   -3.4140    7.9000 C   0  0  0  0  0  1  0  0  0  0  0  0
   -3.0440   -3.4300    8.0750 O   0  0  0  0  0  0  0  0  0  0  0  0
   -6.1440   -0.2550    4.7160 C   0  0  0  0  0  0  0  0  0  0  0  0
   -7.3020   -0.1260    5.0010 O   0  0  0  0  0  0  0  0  0  0  0  0
   -5.6040    0.4630    3.5990 C   0  0  0  0  0  0  0  0  0  0  0  0
   -4.5150    1.2690    3.8440 C   0  0  0  0  0  3  0  0  0  0  0  0
   -4.0100    2.0220    2.8090 C   0  0  0  0  0  3  0  0  0  0  0  0
   -4.5950    1.9330    1.5680 C   0  0  0  0  0  3  0  0  0  0  0  0
   -5.6430    1.1770    1.3450 C   0  0  0  0  0  3  0  0  0  0  0  0
   -6.1470    0.4130    2.3770 C   0  0  0  0  0  3  0  0  0  0  0  0
   -5.6200    0.4660    7.3620 O   0  0  0  0  0  0  0  0  0  0  0  0
   -6.0390    0.5200    8.2570 H   0  0  0  0  0  0  0  0  0  0  0  0
  1  6  1  0  0  0  0
  1  8  1  0  0  0  0
  2  1  2  0  0  0  0
  3  4  2  0  0  0  0
  3  2  1  0  0  0  0
  4  5  1  0  0  0  0
  5 17  1  0  0  0  0
  5  6  2  0  0  0  0
  7  8  1  0  0  0  0
  9 10  2  0  0  0  0
  9  4  1  0  0  0  0
 11 12  1  0  0  0  0
 11  9  1  0  0  0  0
 13 12  2  0  0  0  0
 14 13  1  0  0  0  0
 15 14  2  0  0  0  0
 15 16  1  0  0  0  0
 16 11  2  0  0  0  0
 17 18  1  0  0  0  0
M  END
>  <MODEL>
5

>  <REMARK>
 VINA RESULT:      -3.9      1.181      1.429
  Name = bgox31_2_ligand
  5 active torsions:
  status: ('A' for Active; 'I' for Inactive)
    1  A    between atoms: C_1  and  O_2
    2  A    between atoms: O_2  and  C_3
    3  A    between atoms: C_6  and  C_7
    4  A    between atoms: C_7  and  C_9
    5  A    between atoms: C_15  and  O_16
                            x       y       z     vdW  Elec       q    Type
                         _______ _______ _______ _____ _____    ______ ____

>  <TORSDO>
F 4

$$$$
bgox31_2_ligand
 OpenBabel10092621233D

 18 19  0  0  0  0  0  0  0  0999 V2000
   -4.4770    4.0460    3.1410 C   0  0  0  0  0  0  0  0  0  0  0  0
   -3.7260    2.8710    3.0370 C   0  0  0  0  0  3  0  0  0  0  0  0
   -4.3230    1.7070    2.6250 C   0  0  0  0  0  3  0  0  0  0  0  0
   -5.6540    1.7300    2.3150 C   0  0  0  0  0  0  0  0  0  0  0  0
   -6.3950    2.9000    2.3690 C   0  0  0  0  0  0  0  0  0  0  0  0
   -5.7910    4.0500    2.7750 C   0  0  0  0  0  3  0  0  0  0  0  0
   -2.8790    4.9870    4.5670 C   0  0  0  0  0  1  0  0  0  0  0  0
   -3.8750    5.1550    3.5900 O   0  0  0  0  0  0  0  0  0  0  0  0
   -6.2940    0.4380    1.8970 C   0  0  0  0  0  0  0  0  0  0  0  0
   -6.9730   -0.1390    2.7000 O   0  0  0  0  0  0  0  0  0  0  0  0
   -6.2140   -0.0530    0.5520 C   0  0  0  0  0  0  0  0  0  0  0  0
   -6.5490   -1.3720    0.3490 C   0  0  0  0  0  3  0  0  0  0  0  0
   -6.4230   -1.8950   -0.9180 C   0  0  0  0  0  3  0  0  0  0  0  0
   -5.9840   -1.0830   -1.9360 C   0  0  0  0  0  3  0  0  0  0  0  0
   -5.6500    0.1690   -1.7330 C   0  0  0  0  0  3  0  0  0  0  0  0
   -5.7840    0.7000   -0.4680 C   0  0  0  0  0  3  0  0  0  0  0  0
   -7.6800    2.8600    1.9860 O   0  0  0  0  0  0  0  0  0  0  0  0
   -8.3590    2.4410    2.5720 H   0  0  0  0  0  0  0  0  0  0  0  0
  1  8  1  0  0  0  0
  2  1  1  0  0  0  0
  3  2  2  0  0  0  0
  4  5  2  0  0  0  0
  4  3  1  0  0  0  0
  5  6  1  0  0  0  0
  6  1  2  0  0  0  0
  8  7  1  0  0  0  0
  9  4  1  0  0  0  0
  9 10  2  0  0  0  0
 11  9  1  0  0  0  0
 12 11  1  0  0  0  0
 13 12  2  0  0  0  0
 14 15  2  0  0  0  0
 14 13  1  0  0  0  0
 15 16  1  0  0  0  0
 16 11  2  0  0  0  0
 17  5  1  0  0  0  0
 17 18  1  0  0  0  0
M  END
>  <MODEL>
6

>  <REMARK>
 VINA RESULT:      -3.9      4.816      6.533
  Name = bgox31_2_ligand
  5 active torsions:
  status: ('A' for Active; 'I' for Inactive)
    1  A    between atoms: C_1  and  O_2
    2  A    between atoms: O_2  and  C_3
    3  A    between atoms: C_6  and  C_7
    4  A    between atoms: C_7  and  C_9
    5  A    between atoms: C_15  and  O_16
                            x       y       z     vdW  Elec       q    Type
                         _______ _______ _______ _____ _____    ______ ____

>  <TORSDO>
F 4

$$$$
bgox31_2_ligand
 OpenBabel10092621233D

 18 19  0  0  0  0  0  0  0  0999 V2000
    1.1540   -5.9430   11.0470 C   0  0  0  0  0  0  0  0  0  0  0  0
    1.5810   -5.6090    9.7570 C   0  0  0  0  0  3  0  0  0  0  0  0
    0.6720   -5.5140    8.7340 C   0  0  0  0  0  3  0  0  0  0  0  0
   -0.6480   -5.7430    9.0100 C   0  0  0  0  0  0  0  0  0  0  0  0
   -1.0850   -6.0260   10.2940 C   0  0  0  0  0  0  0  0  0  0  0  0
   -0.1750   -6.1130   11.3010 C   0  0  0  0  0  3  0  0  0  0  0  0
    3.0260   -7.0920   11.8520 C   0  0  0  0  0  1  0  0  0  0  0  0
    2.0720   -6.0720   12.0130 O   0  0  0  0  0  0  0  0  0  0  0  0
   -1.6210   -5.6640    7.8700 C   0  0  0  0  0  0  0  0  0  0  0  0
   -2.0290   -6.6930    7.4080 O   0  0  0  0  0  0  0  0  0  0  0  0
   -2.1560   -4.4170    7.4080 C   0  0  0  0  0  0  0  0  0  0  0  0
   -3.2050   -4.4800    6.5200 C   0  0  0  0  0  3  0  0  0  0  0  0
   -3.7020   -3.3030    6.0060 C   0  0  0  0  0  3  0  0  0  0  0  0
   -3.1480   -2.1110    6.4060 C   0  0  0  0  0  3  0  0  0  0  0  0
   -2.1360   -2.0580    7.2390 C   0  0  0  0  0  3  0  0  0  0  0  0
   -1.6410   -3.2330    7.7640 C   0  0  0  0  0  3  0  0  0  0  0  0
   -2.4020   -6.1720   10.5020 O   0  0  0  0  0  0  0  0  0  0  0  0
   -2.7620   -6.1590   11.4240 H   0  0  0  0  0  0  0  0  0  0  0  0
  1  6  1  0  0  0  0
  1  8  1  0  0  0  0
  2  1  2  0  0  0  0
  3  4  2  0  0  0  0
  3  2  1  0  0  0  0
  4  5  1  0  0  0  0
  5 17  1  0  0  0  0
  5  6  2  0  0  0  0
  7  8  1  0  0  0  0
  9  4  1  0  0  0  0
 10  9  2  0  0  0  0
 11 16  1  0  0  0  0
 11  9  1  0  0  0  0
 12 11  2  0  0  0  0
 13 14  2  0  0  0  0
 13 12  1  0  0  0  0
 14 15  1  0  0  0  0
 15 16  2  0  0  0  0
 17 18  1  0  0  0  0
M  END
>  <MODEL>
7

>  <REMARK>
 VINA RESULT:      -3.9      4.410      6.799
  Name = bgox31_2_ligand
  5 active torsions:
  status: ('A' for Active; 'I' for Inactive)
    1  A    between atoms: C_1  and  O_2
    2  A    between atoms: O_2  and  C_3
    3  A    between atoms: C_6  and  C_7
    4  A    between atoms: C_7  and  C_9
    5  A    between atoms: C_15  and  O_16
                            x       y       z     vdW  Elec       q    Type
                         _______ _______ _______ _____ _____    ______ ____

>  <TORSDO>
F 4

$$$$
bgox31_2_ligand
 OpenBabel10092621233D

 18 19  0  0  0  0  0  0  0  0999 V2000
   -3.3710   -2.2260    6.0920 C   0  0  0  0  0  0  0  0  0  0  0  0
   -2.3250   -1.9510    6.9780 C   0  0  0  0  0  3  0  0  0  0  0  0
   -1.7730   -2.9600    7.7260 C   0  0  0  0  0  3  0  0  0  0  0  0
   -2.2640   -4.2280    7.5750 C   0  0  0  0  0  0  0  0  0  0  0  0
   -3.2670   -4.5180    6.6640 C   0  0  0  0  0  0  0  0  0  0  0  0
   -3.8030   -3.5090    5.9240 C   0  0  0  0  0  3  0  0  0  0  0  0
   -5.0370   -0.5870    5.9880 C   0  0  0  0  0  1  0  0  0  0  0  0
   -3.9180   -1.2120    5.4100 O   0  0  0  0  0  0  0  0  0  0  0  0
   -1.6670   -5.3110    8.4260 C   0  0  0  0  0  0  0  0  0  0  0  0
   -2.3650   -5.8220    9.2570 O   0  0  0  0  0  0  0  0  0  0  0  0
   -0.3480   -5.8230    8.1950 C   0  0  0  0  0  0  0  0  0  0  0  0
   -0.2390   -6.9060    7.3530 C   0  0  0  0  0  3  0  0  0  0  0  0
    1.0050   -7.4640    7.1580 C   0  0  0  0  0  3  0  0  0  0  0  0
    2.0920   -6.9150    7.7950 C   0  0  0  0  0  3  0  0  0  0  0  0
    1.9790   -5.8940    8.6100 C   0  0  0  0  0  3  0  0  0  0  0  0
    0.7370   -5.3260    8.8010 C   0  0  0  0  0  3  0  0  0  0  0  0
   -3.6500   -5.7950    6.5220 O   0  0  0  0  0  0  0  0  0  0  0  0
   -3.8380   -6.3470    7.3220 H   0  0  0  0  0  0  0  0  0  0  0  0
  1  2  1  0  0  0  0
  2  3  2  0  0  0  0
  4  3  1  0  0  0  0
  4  9  1  0  0  0  0
  5  4  2  0  0  0  0
  6  1  2  0  0  0  0
  6  5  1  0  0  0  0
  8  7  1  0  0  0  0
  8  1  1  0  0  0  0
  9 10  2  0  0  0  0
 11  9  1  0  0  0  0
 11 16  1  0  0  0  0
 12 11  2  0  0  0  0
 13 12  1  0  0  0  0
 13 14  2  0  0  0  0
 14 15  1  0  0  0  0
 15 16  2  0  0  0  0
 17  5  1  0  0  0  0
 17 18  1  0  0  0  0
M  END
>  <MODEL>
8

>  <REMARK>
 VINA RESULT:      -3.9      2.684      7.688
  Name = bgox31_2_ligand
  5 active torsions:
  status: ('A' for Active; 'I' for Inactive)
    1  A    between atoms: C_1  and  O_2
    2  A    between atoms: O_2  and  C_3
    3  A    between atoms: C_6  and  C_7
    4  A    between atoms: C_7  and  C_9
    5  A    between atoms: C_15  and  O_16
                            x       y       z     vdW  Elec       q    Type
                         _______ _______ _______ _____ _____    ______ ____

>  <TORSDO>
F 4

$$$$
bgox31_2_ligand
 OpenBabel10092621233D

 18 19  0  0  0  0  0  0  0  0999 V2000
   -3.2470   -3.4950    6.9160 C   0  0  0  0  0  0  0  0  0  0  0  0
   -2.1170   -2.9240    7.5100 C   0  0  0  0  0  3  0  0  0  0  0  0
   -1.1220   -3.7260    8.0100 C   0  0  0  0  0  3  0  0  0  0  0  0
   -1.2630   -5.0820    7.9050 C   0  0  0  0  0  0  0  0  0  0  0  0
   -2.3560   -5.6550    7.2760 C   0  0  0  0  0  0  0  0  0  0  0  0
   -3.3340   -4.8490    6.7790 C   0  0  0  0  0  3  0  0  0  0  0  0
   -4.2230   -1.3700    6.9740 C   0  0  0  0  0  1  0  0  0  0  0  0
   -4.2200   -2.6860    6.4780 O   0  0  0  0  0  0  0  0  0  0  0  0
   -0.1790   -5.9420    8.4870 C   0  0  0  0  0  0  0  0  0  0  0  0
    0.4860   -6.5950    7.7330 O   0  0  0  0  0  0  0  0  0  0  0  0
    0.1540   -5.9100    9.8820 C   0  0  0  0  0  0  0  0  0  0  0  0
    1.4850   -5.7680   10.2010 C   0  0  0  0  0  3  0  0  0  0  0  0
    1.8480   -5.7980   11.5280 C   0  0  0  0  0  3  0  0  0  0  0  0
    0.8750   -5.9510   12.4860 C   0  0  0  0  0  3  0  0  0  0  0  0
   -0.3900   -6.1040   12.1740 C   0  0  0  0  0  3  0  0  0  0  0  0
   -0.7600   -6.0650   10.8470 C   0  0  0  0  0  3  0  0  0  0  0  0
   -2.3940   -6.9900    7.1500 O   0  0  0  0  0  0  0  0  0  0  0  0
   -2.6420   -7.3990    6.2830 H   0  0  0  0  0  0  0  0  0  0  0  0
  1  2  1  0  0  0  0
  2  3  2  0  0  0  0
  4  3  1  0  0  0  0
  4  9  1  0  0  0  0
  5  4  2  0  0  0  0
  6  1  2  0  0  0  0
  6  5  1  0  0  0  0
  8  1  1  0  0  0  0
  8  7  1  0  0  0  0
  9 11  1  0  0  0  0
 10  9  2  0  0  0  0
 11 12  2  0  0  0  0
 11 16  1  0  0  0  0
 12 13  1  0  0  0  0
 13 14  2  0  0  0  0
 15 14  1  0  0  0  0
 16 15  2  0  0  0  0
 17  5  1  0  0  0  0
 18 17  1  0  0  0  0
M  END
>  <MODEL>
9

>  <REMARK>
 VINA RESULT:      -3.9      3.354      8.557
  Name = bgox31_2_ligand
  5 active torsions:
  status: ('A' for Active; 'I' for Inactive)
    1  A    between atoms: C_1  and  O_2
    2  A    between atoms: O_2  and  C_3
    3  A    between atoms: C_6  and  C_7
    4  A    between atoms: C_7  and  C_9
    5  A    between atoms: C_15  and  O_16
                            x       y       z     vdW  Elec       q    Type
                         _______ _______ _______ _____ _____    ______ ____

>  <TORSDO>
F 4

$$$$
