bg33_4_dockpose1
     RDKit          3D

 20 20  0  0  0  0  0  0  0  0999 V2000
   -4.7560   -6.2920    1.5530 C   0  0  0  0  0  0  0  0  0  0  0  0
   -4.2520   -4.9850    2.1000 C   0  0  0  0  0  0  0  0  0  0  0  0
   -3.3490   -5.1430    3.3210 C   0  0  0  0  0  0  0  0  0  0  0  0
   -4.1000   -4.9580    4.6150 C   0  0  0  0  0  0  0  0  0  0  0  0
   -3.3130   -3.9500    5.5750 C   0  0  1  0  0  0  0  0  0  0  0  0
   -4.1400   -3.4130    6.7790 C   0  0  0  0  0  0  0  0  0  0  0  0
   -3.8510   -1.9000    7.0490 C   0  0  0  0  0  0  0  0  0  0  0  0
   -2.3050   -4.6430    6.2290 O   0  0  0  0  0  0  0  0  0  0  0  0
   -0.9550   -4.0740    6.2780 C   0  0  0  0  0  0  0  0  0  0  0  0
   -0.1390   -4.4410    7.1770 O   0  0  0  0  0  0  0  0  0  0  0  0
   -0.5830   -3.1940    5.1590 C   0  0  0  0  0  0  0  0  0  0  0  0
   -0.2950   -1.8190    5.4500 C   0  0  0  0  0  0  0  0  0  0  0  0
   -0.0080   -0.8300    4.3320 C   0  0  0  0  0  0  0  0  0  0  0  0
    0.0250    0.5330    4.5360 C   0  0  0  0  0  0  0  0  0  0  0  0
    0.3040    1.4440    3.4590 C   0  0  0  0  0  0  0  0  0  0  0  0
    0.5760    0.9920    2.1550 C   0  0  0  0  0  0  0  0  0  0  0  0
    0.9070    1.8130    1.0960 O   0  0  0  0  0  0  0  0  0  0  0  0
    2.3080    2.0020    0.7740 C   0  0  0  0  0  0  0  0  0  0  0  0
    0.5530   -0.3900    1.9810 C   0  0  0  0  0  0  0  0  0  0  0  0
    0.2860   -1.2730    3.0350 C   0  0  0  0  0  0  0  0  0  0  0  0
  2  1  1  0
  3  2  1  0
  4  3  1  0
  5  4  1  6
  6  5  1  0
  7  6  1  0
  8  5  1  0
  9  8  1  0
 10  9  2  0
 11  9  1  0
 12 11  2  3
 13 12  1  0
 14 13  1  0
 15 14  2  0
 16 15  1  0
 17 16  1  0
 18 17  1  0
 19 16  2  0
 20 19  1  0
 20 13  2  0
M  END
$$$$
