ox2_esm1_f8_ligand
 OpenBabel10092621193D

 18 19  0  0  0  0  0  0  0  0999 V2000
    7.2490    4.6720   -0.0300 C   0  0  0  0  0  0  0  0  0  0  0  0
    7.4410    5.5580    1.0270 C   0  0  0  0  0  3  0  0  0  0  0  0
    7.1260    5.1800    2.3190 C   0  0  0  0  0  3  0  0  0  0  0  0
    6.6010    3.9250    2.5710 C   0  0  0  0  0  0  0  0  0  0  0  0
    6.4060    3.0260    1.5120 C   0  0  0  0  0  0  0  0  0  0  0  0
    6.7390    3.4160    0.2150 C   0  0  0  0  0  3  0  0  0  0  0  0
    6.6030    4.6870   -2.3690 C   0  0  0  0  0  1  0  0  0  0  0  0
    7.5510    4.9930   -1.3220 O   0  0  0  0  0  0  0  0  0  0  0  0
    6.2450    3.5050    3.9610 C   0  0  0  0  0  0  0  0  0  0  0  0
    6.8840    2.6300    4.5070 O   0  0  0  0  0  0  0  0  0  0  0  0
    5.1320    4.1450    4.6940 C   0  0  0  0  0  0  0  0  0  0  0  0
    5.2960    4.4930    6.0310 C   0  0  0  0  0  3  0  0  0  0  0  0
    4.2500    5.1050    6.7170 C   0  0  0  0  0  3  0  0  0  0  0  0
    3.0320    5.3420    6.0970 C   0  0  0  0  0  3  0  0  0  0  0  0
    2.8630    4.9550    4.7760 C   0  0  0  0  0  3  0  0  0  0  0  0
    3.9120    4.3600    4.0740 C   0  0  0  0  0  3  0  0  0  0  0  0
    5.8960    1.7830    1.7730 O   0  0  0  0  0  0  0  0  0  0  0  0
    5.7550    1.1410    1.0330 H   0  0  0  0  0  0  0  0  0  0  0  0
  1  6  2  0  0  0  0
  1  2  1  0  0  0  0
  2  3  2  0  0  0  0
  3  4  1  0  0  0  0
  4  9  1  0  0  0  0
  5 17  1  0  0  0  0
  5  4  2  0  0  0  0
  6  5  1  0  0  0  0
  7  8  1  0  0  0  0
  8  1  1  0  0  0  0
  9 10  2  0  0  0  0
  9 11  1  0  0  0  0
 11 12  1  0  0  0  0
 12 13  2  0  0  0  0
 14 13  1  0  0  0  0
 15 14  2  0  0  0  0
 16 11  2  0  0  0  0
 16 15  1  0  0  0  0
 18 17  1  0  0  0  0
M  END
>  <MODEL>
1

>  <REMARK>
 VINA RESULT:      -5.0      0.000      0.000
  Name = ox2_esm1_f8_ligand
  5 active torsions:
  status: ('A' for Active; 'I' for Inactive)
    1  A    between atoms: C_1  and  O_2
    2  A    between atoms: O_2  and  C_3
    3  A    between atoms: C_6  and  C_7
    4  A    between atoms: C_7  and  C_9
    5  A    between atoms: C_15  and  O_16
                            x       y       z     vdW  Elec       q    Type
                         _______ _______ _______ _____ _____    ______ ____

>  <TORSDO>
F 4

$$$$
ox2_esm1_f8_ligand
 OpenBabel10092621193D

 18 19  0  0  0  0  0  0  0  0999 V2000
    2.0080    2.8350   -5.5820 C   0  0  0  0  0  0  0  0  0  0  0  0
    1.4990    2.7590   -4.2870 C   0  0  0  0  0  3  0  0  0  0  0  0
    1.1030    1.5420   -3.7650 C   0  0  0  0  0  3  0  0  0  0  0  0
    1.1920    0.3920   -4.5290 C   0  0  0  0  0  0  0  0  0  0  0  0
    1.7050    0.4590   -5.8320 C   0  0  0  0  0  0  0  0  0  0  0  0
    2.1120    1.6910   -6.3430 C   0  0  0  0  0  3  0  0  0  0  0  0
    3.8120    4.3900   -6.0440 C   0  0  0  0  0  1  0  0  0  0  0  0
    2.4210    4.0100   -6.1410 O   0  0  0  0  0  0  0  0  0  0  0  0
    0.7570   -0.9300   -3.9820 C   0  0  0  0  0  0  0  0  0  0  0  0
    1.4050   -1.9250   -4.2290 O   0  0  0  0  0  0  0  0  0  0  0  0
   -0.4460   -1.0490   -3.1310 C   0  0  0  0  0  0  0  0  0  0  0  0
   -1.7090   -0.9120   -3.6990 C   0  0  0  0  0  3  0  0  0  0  0  0
   -2.8410   -1.0340   -2.8970 C   0  0  0  0  0  3  0  0  0  0  0  0
   -2.7290   -1.2550   -1.5320 C   0  0  0  0  0  3  0  0  0  0  0  0
   -1.4660   -1.3480   -0.9680 C   0  0  0  0  0  3  0  0  0  0  0  0
   -0.3260   -1.2490   -1.7650 C   0  0  0  0  0  3  0  0  0  0  0  0
    1.7980   -0.6860   -6.5760 O   0  0  0  0  0  0  0  0  0  0  0  0
    2.2430   -0.6670   -7.4600 H   0  0  0  0  0  0  0  0  0  0  0  0
  1  2  1  0  0  0  0
  2  3  2  0  0  0  0
  4  9  1  0  0  0  0
  4  3  1  0  0  0  0
  5  4  2  0  0  0  0
  6  5  1  0  0  0  0
  6  1  2  0  0  0  0
  8  7  1  0  0  0  0
  8  1  1  0  0  0  0
  9 11  1  0  0  0  0
 10  9  2  0  0  0  0
 11 16  1  0  0  0  0
 12 11  2  0  0  0  0
 12 13  1  0  0  0  0
 13 14  2  0  0  0  0
 14 15  1  0  0  0  0
 16 15  2  0  0  0  0
 17  5  1  0  0  0  0
 18 17  1  0  0  0  0
M  END
>  <MODEL>
2

>  <REMARK>
 VINA RESULT:      -4.9      8.952      9.848
  Name = ox2_esm1_f8_ligand
  5 active torsions:
  status: ('A' for Active; 'I' for Inactive)
    1  A    between atoms: C_1  and  O_2
    2  A    between atoms: O_2  and  C_3
    3  A    between atoms: C_6  and  C_7
    4  A    between atoms: C_7  and  C_9
    5  A    between atoms: C_15  and  O_16
                            x       y       z     vdW  Elec       q    Type
                         _______ _______ _______ _____ _____    ______ ____

>  <TORSDO>
F 4

$$$$
ox2_esm1_f8_ligand
 OpenBabel10092621193D

 18 19  0  0  0  0  0  0  0  0999 V2000
    3.0310    5.9030    5.3090 C   0  0  0  0  0  0  0  0  0  0  0  0
    3.9150    6.7930    4.7020 C   0  0  0  0  0  3  0  0  0  0  0  0
    4.8760    6.3280    3.8230 C   0  0  0  0  0  3  0  0  0  0  0  0
    4.9780    4.9760    3.5500 C   0  0  0  0  0  0  0  0  0  0  0  0
    4.0910    4.0750    4.1550 C   0  0  0  0  0  0  0  0  0  0  0  0
    3.1190    4.5560    5.0310 C   0  0  0  0  0  3  0  0  0  0  0  0
    2.2990    6.2210    7.6000 C   0  0  0  0  0  1  0  0  0  0  0  0
    2.0600    6.3100    6.1770 O   0  0  0  0  0  0  0  0  0  0  0  0
    6.0190    4.4580    2.6100 C   0  0  0  0  0  0  0  0  0  0  0  0
    6.8610    3.6830    3.0130 O   0  0  0  0  0  0  0  0  0  0  0  0
    6.0360    4.8610    1.1880 C   0  0  0  0  0  0  0  0  0  0  0  0
    5.2200    5.9020    0.7550 C   0  0  0  0  0  3  0  0  0  0  0  0
    5.2440    6.2860   -0.5830 C   0  0  0  0  0  3  0  0  0  0  0  0
    6.0450    5.6230   -1.5010 C   0  0  0  0  0  3  0  0  0  0  0  0
    6.8240    4.5600   -1.0700 C   0  0  0  0  0  3  0  0  0  0  0  0
    6.8230    4.1810    0.2720 C   0  0  0  0  0  3  0  0  0  0  0  0
    4.1940    2.7400    3.8710 O   0  0  0  0  0  0  0  0  0  0  0  0
    5.0870    2.3250    3.7600 H   0  0  0  0  0  0  0  0  0  0  0  0
  1  8  1  0  0  0  0
  2  1  2  0  0  0  0
  3  2  1  0  0  0  0
  4  3  2  0  0  0  0
  4  5  1  0  0  0  0
  5  6  2  0  0  0  0
  6  1  1  0  0  0  0
  8  7  1  0  0  0  0
  9 10  2  0  0  0  0
  9  4  1  0  0  0  0
 11  9  1  0  0  0  0
 12 11  1  0  0  0  0
 13 12  2  0  0  0  0
 14 15  2  0  0  0  0
 14 13  1  0  0  0  0
 15 16  1  0  0  0  0
 16 11  2  0  0  0  0
 17  5  1  0  0  0  0
 18 17  1  0  0  0  0
M  END
>  <MODEL>
3

>  <REMARK>
 VINA RESULT:      -4.8      2.243      5.948
  Name = ox2_esm1_f8_ligand
  5 active torsions:
  status: ('A' for Active; 'I' for Inactive)
    1  A    between atoms: C_1  and  O_2
    2  A    between atoms: O_2  and  C_3
    3  A    between atoms: C_6  and  C_7
    4  A    between atoms: C_7  and  C_9
    5  A    between atoms: C_15  and  O_16
                            x       y       z     vdW  Elec       q    Type
                         _______ _______ _______ _____ _____    ______ ____

>  <TORSDO>
F 4

$$$$
ox2_esm1_f8_ligand
 OpenBabel10092621193D

 18 19  0  0  0  0  0  0  0  0999 V2000
   -2.1740   -1.5320   -1.3900 C   0  0  0  0  0  0  0  0  0  0  0  0
   -0.8310   -1.2190   -1.1860 C   0  0  0  0  0  3  0  0  0  0  0  0
   -0.0440   -0.8100   -2.2460 C   0  0  0  0  0  3  0  0  0  0  0  0
   -0.5760   -0.7240   -3.5200 C   0  0  0  0  0  0  0  0  0  0  0  0
   -1.9270   -1.0350   -3.7330 C   0  0  0  0  0  0  0  0  0  0  0  0
   -2.7140   -1.4360   -2.6530 C   0  0  0  0  0  3  0  0  0  0  0  0
   -2.6040   -3.0490    0.4540 C   0  0  0  0  0  1  0  0  0  0  0  0
   -2.9960   -1.9330   -0.3760 O   0  0  0  0  0  0  0  0  0  0  0  0
    0.2650   -0.2940   -4.6780 C   0  0  0  0  0  0  0  0  0  0  0  0
    0.7080   -1.1260   -5.4410 O   0  0  0  0  0  0  0  0  0  0  0  0
    0.5600    1.1340   -4.9230 C   0  0  0  0  0  0  0  0  0  0  0  0
   -0.1450    1.8270   -5.9020 C   0  0  0  0  0  3  0  0  0  0  0  0
    0.1270    3.1740   -6.1250 C   0  0  0  0  0  3  0  0  0  0  0  0
    1.1190    3.8290   -5.4090 C   0  0  0  0  0  3  0  0  0  0  0  0
    1.8460    3.1210   -4.4640 C   0  0  0  0  0  3  0  0  0  0  0  0
    1.5660    1.7770   -4.2190 C   0  0  0  0  0  3  0  0  0  0  0  0
   -2.4470   -0.9370   -4.9950 O   0  0  0  0  0  0  0  0  0  0  0  0
   -3.3800   -1.2170   -5.1690 H   0  0  0  0  0  0  0  0  0  0  0  0
  1  2  1  0  0  0  0
  1  8  1  0  0  0  0
  3  2  2  0  0  0  0
  4  3  1  0  0  0  0
  5  4  2  0  0  0  0
  5  6  1  0  0  0  0
  6  1  2  0  0  0  0
  8  7  1  0  0  0  0
  9  4  1  0  0  0  0
 10  9  2  0  0  0  0
 11  9  1  0  0  0  0
 11 16  1  0  0  0  0
 12 11  2  0  0  0  0
 13 12  1  0  0  0  0
 13 14  2  0  0  0  0
 14 15  1  0  0  0  0
 15 16  2  0  0  0  0
 17  5  1  0  0  0  0
 18 17  1  0  0  0  0
M  END
>  <MODEL>
4

>  <REMARK>
 VINA RESULT:      -4.8      9.223     11.399
  Name = ox2_esm1_f8_ligand
  5 active torsions:
  status: ('A' for Active; 'I' for Inactive)
    1  A    between atoms: C_1  and  O_2
    2  A    between atoms: O_2  and  C_3
    3  A    between atoms: C_6  and  C_7
    4  A    between atoms: C_7  and  C_9
    5  A    between atoms: C_15  and  O_16
                            x       y       z     vdW  Elec       q    Type
                         _______ _______ _______ _____ _____    ______ ____

>  <TORSDO>
F 4

$$$$
ox2_esm1_f8_ligand
 OpenBabel10092621193D

 18 19  0  0  0  0  0  0  0  0999 V2000
   -0.2510   -0.4480   -4.2580 C   0  0  0  0  0  0  0  0  0  0  0  0
    0.4080   -0.5980   -3.0390 C   0  0  0  0  0  3  0  0  0  0  0  0
   -0.2810   -1.0420   -1.9260 C   0  0  0  0  0  3  0  0  0  0  0  0
   -1.6330   -1.3250   -2.0080 C   0  0  0  0  0  0  0  0  0  0  0  0
   -2.3020   -1.1780   -3.2310 C   0  0  0  0  0  0  0  0  0  0  0  0
   -1.5940   -0.7400   -4.3490 C   0  0  0  0  0  3  0  0  0  0  0  0
    0.3950    1.3900   -5.7050 C   0  0  0  0  0  1  0  0  0  0  0  0
    0.3850   -0.0210   -5.3880 O   0  0  0  0  0  0  0  0  0  0  0  0
   -2.3940   -1.7960   -0.8100 C   0  0  0  0  0  0  0  0  0  0  0  0
   -3.2100   -1.0640   -0.2910 O   0  0  0  0  0  0  0  0  0  0  0  0
   -2.1810   -3.1470   -0.2490 C   0  0  0  0  0  0  0  0  0  0  0  0
   -2.3910   -3.3720    1.1080 C   0  0  0  0  0  3  0  0  0  0  0  0
   -2.2000   -4.6470    1.6330 C   0  0  0  0  0  3  0  0  0  0  0  0
   -1.7670   -5.6920    0.8290 C   0  0  0  0  0  3  0  0  0  0  0  0
   -1.5200   -5.4500   -0.5140 C   0  0  0  0  0  3  0  0  0  0  0  0
   -1.7300   -4.1810   -1.0540 C   0  0  0  0  0  3  0  0  0  0  0  0
   -3.6370   -1.4700   -3.3030 O   0  0  0  0  0  0  0  0  0  0  0  0
   -3.9310   -2.3900   -3.5220 H   0  0  0  0  0  0  0  0  0  0  0  0
  1  2  1  0  0  0  0
  2  3  2  0  0  0  0
  4  3  1  0  0  0  0
  4  9  1  0  0  0  0
  5  4  2  0  0  0  0
  6  1  2  0  0  0  0
  6  5  1  0  0  0  0
  7  8  1  0  0  0  0
  8  1  1  0  0  0  0
  9 10  2  0  0  0  0
  9 11  1  0  0  0  0
 11 12  1  0  0  0  0
 12 13  2  0  0  0  0
 14 13  1  0  0  0  0
 15 14  2  0  0  0  0
 16 15  1  0  0  0  0
 16 11  2  0  0  0  0
 17  5  1  0  0  0  0
 18 17  1  0  0  0  0
M  END
>  <MODEL>
5

>  <REMARK>
 VINA RESULT:      -4.7     10.143     11.110
  Name = ox2_esm1_f8_ligand
  5 active torsions:
  status: ('A' for Active; 'I' for Inactive)
    1  A    between atoms: C_1  and  O_2
    2  A    between atoms: O_2  and  C_3
    3  A    between atoms: C_6  and  C_7
    4  A    between atoms: C_7  and  C_9
    5  A    between atoms: C_15  and  O_16
                            x       y       z     vdW  Elec       q    Type
                         _______ _______ _______ _____ _____    ______ ____

>  <TORSDO>
F 4

$$$$
ox2_esm1_f8_ligand
 OpenBabel10092621193D

 18 19  0  0  0  0  0  0  0  0999 V2000
   -2.0890   -4.7620    1.4600 C   0  0  0  0  0  0  0  0  0  0  0  0
   -2.6170   -3.4730    1.4970 C   0  0  0  0  0  3  0  0  0  0  0  0
   -2.8530   -2.7830    0.3220 C   0  0  0  0  0  3  0  0  0  0  0  0
   -2.5530   -3.3590   -0.8990 C   0  0  0  0  0  0  0  0  0  0  0  0
   -2.0230   -4.6570   -0.9450 C   0  0  0  0  0  0  0  0  0  0  0  0
   -1.8000   -5.3470    0.2460 C   0  0  0  0  0  3  0  0  0  0  0  0
   -1.7830   -6.9300    2.5050 C   0  0  0  0  0  1  0  0  0  0  0  0
   -1.8450   -5.4880    2.5890 O   0  0  0  0  0  0  0  0  0  0  0  0
   -2.7920   -2.6220   -2.1770 C   0  0  0  0  0  0  0  0  0  0  0  0
   -3.8490   -2.7520   -2.7570 O   0  0  0  0  0  0  0  0  0  0  0  0
   -1.7670   -1.7210   -2.7460 C   0  0  0  0  0  0  0  0  0  0  0  0
   -1.8450   -1.3430   -4.0830 C   0  0  0  0  0  3  0  0  0  0  0  0
   -0.8840   -0.4880   -4.6140 C   0  0  0  0  0  3  0  0  0  0  0  0
    0.1740   -0.0330   -3.8390 C   0  0  0  0  0  3  0  0  0  0  0  0
    0.2670   -0.4480   -2.5200 C   0  0  0  0  0  3  0  0  0  0  0  0
   -0.7020   -1.2870   -1.9720 C   0  0  0  0  0  3  0  0  0  0  0  0
   -1.7390   -5.2220   -2.1580 O   0  0  0  0  0  0  0  0  0  0  0  0
   -2.2230   -6.0340   -2.4520 H   0  0  0  0  0  0  0  0  0  0  0  0
  1  2  1  0  0  0  0
  1  8  1  0  0  0  0
  3  2  2  0  0  0  0
  4  3  1  0  0  0  0
  5  4  2  0  0  0  0
  5  6  1  0  0  0  0
  6  1  2  0  0  0  0
  7  8  1  0  0  0  0
  9  4  1  0  0  0  0
 10  9  2  0  0  0  0
 11  9  1  0  0  0  0
 11 16  1  0  0  0  0
 12 11  2  0  0  0  0
 13 12  1  0  0  0  0
 13 14  2  0  0  0  0
 14 15  1  0  0  0  0
 15 16  2  0  0  0  0
 17  5  1  0  0  0  0
 18 17  1  0  0  0  0
M  END
>  <MODEL>
6

>  <REMARK>
 VINA RESULT:      -4.7     10.658     12.620
  Name = ox2_esm1_f8_ligand
  5 active torsions:
  status: ('A' for Active; 'I' for Inactive)
    1  A    between atoms: C_1  and  O_2
    2  A    between atoms: O_2  and  C_3
    3  A    between atoms: C_6  and  C_7
    4  A    between atoms: C_7  and  C_9
    5  A    between atoms: C_15  and  O_16
                            x       y       z     vdW  Elec       q    Type
                         _______ _______ _______ _____ _____    ______ ____

>  <TORSDO>
F 4

$$$$
ox2_esm1_f8_ligand
 OpenBabel10092621193D

 18 19  0  0  0  0  0  0  0  0999 V2000
   -2.3820   -2.0800   -1.0540 C   0  0  0  0  0  0  0  0  0  0  0  0
   -2.8820   -1.1770   -1.9900 C   0  0  0  0  0  3  0  0  0  0  0  0
   -2.1190   -0.8180   -3.0870 C   0  0  0  0  0  3  0  0  0  0  0  0
   -0.8490   -1.3390   -3.2550 C   0  0  0  0  0  0  0  0  0  0  0  0
   -0.3400   -2.2500   -2.3180 C   0  0  0  0  0  0  0  0  0  0  0  0
   -1.1230   -2.6130   -1.2220 C   0  0  0  0  0  3  0  0  0  0  0  0
   -2.5960   -3.5480    0.8660 C   0  0  0  0  0  1  0  0  0  0  0  0
   -3.0970   -2.4730    0.0400 O   0  0  0  0  0  0  0  0  0  0  0  0
   -0.0080   -0.9530   -4.4290 C   0  0  0  0  0  0  0  0  0  0  0  0
    0.3860   -1.8080   -5.1930 O   0  0  0  0  0  0  0  0  0  0  0  0
    0.3440    0.4600   -4.6880 C   0  0  0  0  0  0  0  0  0  0  0  0
    0.9840    1.2030   -3.7010 C   0  0  0  0  0  3  0  0  0  0  0  0
    1.3230    2.5310   -3.9490 C   0  0  0  0  0  3  0  0  0  0  0  0
    1.0010    3.1360   -5.1560 C   0  0  0  0  0  3  0  0  0  0  0  0
    0.3260    2.4000   -6.1180 C   0  0  0  0  0  3  0  0  0  0  0  0
    0.0000    1.0630   -5.8870 C   0  0  0  0  0  3  0  0  0  0  0  0
    0.9140   -2.7670   -2.4980 O   0  0  0  0  0  0  0  0  0  0  0  0
    1.2040   -3.0590   -3.3990 H   0  0  0  0  0  0  0  0  0  0  0  0
  1  8  1  0  0  0  0
  2  1  2  0  0  0  0
  3  2  1  0  0  0  0
  4  3  2  0  0  0  0
  4  5  1  0  0  0  0
  5  6  2  0  0  0  0
  6  1  1  0  0  0  0
  8  7  1  0  0  0  0
  9  4  1  0  0  0  0
 10  9  2  0  0  0  0
 11  9  1  0  0  0  0
 11 12  1  0  0  0  0
 13 12  2  0  0  0  0
 14 13  1  0  0  0  0
 15 16  1  0  0  0  0
 15 14  2  0  0  0  0
 16 11  2  0  0  0  0
 17  5  1  0  0  0  0
 18 17  1  0  0  0  0
M  END
>  <MODEL>
7

>  <REMARK>
 VINA RESULT:      -4.6      9.071     11.401
  Name = ox2_esm1_f8_ligand
  5 active torsions:
  status: ('A' for Active; 'I' for Inactive)
    1  A    between atoms: C_1  and  O_2
    2  A    between atoms: O_2  and  C_3
    3  A    between atoms: C_6  and  C_7
    4  A    between atoms: C_7  and  C_9
    5  A    between atoms: C_15  and  O_16
                            x       y       z     vdW  Elec       q    Type
                         _______ _______ _______ _____ _____    ______ ____

>  <TORSDO>
F 4

$$$$
ox2_esm1_f8_ligand
 OpenBabel10092621193D

 18 19  0  0  0  0  0  0  0  0999 V2000
    3.2590    3.3400   -5.6330 C   0  0  0  0  0  0  0  0  0  0  0  0
    3.5180    2.0090   -5.3130 C   0  0  0  0  0  3  0  0  0  0  0  0
    2.4980    1.0750   -5.3400 C   0  0  0  0  0  3  0  0  0  0  0  0
    1.2090    1.4570   -5.6680 C   0  0  0  0  0  0  0  0  0  0  0  0
    0.9410    2.7950   -5.9930 C   0  0  0  0  0  0  0  0  0  0  0  0
    1.9800    3.7240   -5.9730 C   0  0  0  0  0  3  0  0  0  0  0  0
    4.2900    5.2430   -4.5380 C   0  0  0  0  0  1  0  0  0  0  0  0
    4.2310    4.2980   -5.6300 O   0  0  0  0  0  0  0  0  0  0  0  0
    0.0940    0.4620   -5.6900 C   0  0  0  0  0  0  0  0  0  0  0  0
   -0.4250    0.1640   -6.7450 O   0  0  0  0  0  0  0  0  0  0  0  0
   -0.3840   -0.1820   -4.4480 C   0  0  0  0  0  0  0  0  0  0  0  0
   -1.6250   -0.8110   -4.4290 C   0  0  0  0  0  3  0  0  0  0  0  0
   -2.0700   -1.4240   -3.2610 C   0  0  0  0  0  3  0  0  0  0  0  0
   -1.3080   -1.3870   -2.1010 C   0  0  0  0  0  3  0  0  0  0  0  0
   -0.0920   -0.7220   -2.1160 C   0  0  0  0  0  3  0  0  0  0  0  0
    0.3720   -0.1230   -3.2880 C   0  0  0  0  0  3  0  0  0  0  0  0
   -0.3350    3.1600   -6.3250 O   0  0  0  0  0  0  0  0  0  0  0  0
   -0.4960    3.7300   -7.1180 H   0  0  0  0  0  0  0  0  0  0  0  0
  1  8  1  0  0  0  0
  1  2  1  0  0  0  0
  3  2  2  0  0  0  0
  4  3  1  0  0  0  0
  5  6  1  0  0  0  0
  5  4  2  0  0  0  0
  6  1  2  0  0  0  0
  8  7  1  0  0  0  0
  9  4  1  0  0  0  0
  9 11  1  0  0  0  0
 10  9  2  0  0  0  0
 11 12  2  0  0  0  0
 11 16  1  0  0  0  0
 12 13  1  0  0  0  0
 13 14  2  0  0  0  0
 15 14  1  0  0  0  0
 16 15  2  0  0  0  0
 17  5  1  0  0  0  0
 18 17  1  0  0  0  0
M  END
>  <MODEL>
8

>  <REMARK>
 VINA RESULT:      -4.6      8.266     10.130
  Name = ox2_esm1_f8_ligand
  5 active torsions:
  status: ('A' for Active; 'I' for Inactive)
    1  A    between atoms: C_1  and  O_2
    2  A    between atoms: O_2  and  C_3
    3  A    between atoms: C_6  and  C_7
    4  A    between atoms: C_7  and  C_9
    5  A    between atoms: C_15  and  O_16
                            x       y       z     vdW  Elec       q    Type
                         _______ _______ _______ _____ _____    ______ ____

>  <TORSDO>
F 4

$$$$
ox2_esm1_f8_ligand
 OpenBabel10092621193D

 18 19  0  0  0  0  0  0  0  0999 V2000
   -1.4630   -5.9790    1.3480 C   0  0  0  0  0  0  0  0  0  0  0  0
   -1.0140   -6.0880    0.0330 C   0  0  0  0  0  3  0  0  0  0  0  0
   -1.4170   -5.1690   -0.9180 C   0  0  0  0  0  3  0  0  0  0  0  0
   -2.2810   -4.1440   -0.5780 C   0  0  0  0  0  0  0  0  0  0  0  0
   -2.7360   -4.0260    0.7430 C   0  0  0  0  0  0  0  0  0  0  0  0
   -2.3140   -4.9530    1.6960 C   0  0  0  0  0  3  0  0  0  0  0  0
    0.0460   -7.7210    2.1040 C   0  0  0  0  0  1  0  0  0  0  0  0
   -1.0900   -6.8550    2.3260 O   0  0  0  0  0  0  0  0  0  0  0  0
   -2.7340   -3.1490   -1.5980 C   0  0  0  0  0  0  0  0  0  0  0  0
   -3.8970   -3.1290   -1.9430 O   0  0  0  0  0  0  0  0  0  0  0  0
   -1.7930   -2.1740   -2.1890 C   0  0  0  0  0  0  0  0  0  0  0  0
   -0.8850   -1.5080   -1.3710 C   0  0  0  0  0  3  0  0  0  0  0  0
    0.0060   -0.5970   -1.9300 C   0  0  0  0  0  3  0  0  0  0  0  0
   -0.0180   -0.3160   -3.2890 C   0  0  0  0  0  3  0  0  0  0  0  0
   -0.9530   -0.9530   -4.0900 C   0  0  0  0  0  3  0  0  0  0  0  0
   -1.8370   -1.8830   -3.5430 C   0  0  0  0  0  3  0  0  0  0  0  0
   -3.5830   -3.0030    1.0720 O   0  0  0  0  0  0  0  0  0  0  0  0
   -3.3540   -2.0720    0.8240 H   0  0  0  0  0  0  0  0  0  0  0  0
  1  6  1  0  0  0  0
  1  8  1  0  0  0  0
  2  1  2  0  0  0  0
  3  4  2  0  0  0  0
  3  2  1  0  0  0  0
  4  5  1  0  0  0  0
  5 17  1  0  0  0  0
  5  6  2  0  0  0  0
  7  8  1  0  0  0  0
  9  4  1  0  0  0  0
 10  9  2  0  0  0  0
 11  9  1  0  0  0  0
 11 12  1  0  0  0  0
 13 12  2  0  0  0  0
 14 13  1  0  0  0  0
 15 16  1  0  0  0  0
 15 14  2  0  0  0  0
 16 11  2  0  0  0  0
 18 17  1  0  0  0  0
M  END
>  <MODEL>
9

>  <REMARK>
 VINA RESULT:      -4.5     10.840     12.636
  Name = ox2_esm1_f8_ligand
  5 active torsions:
  status: ('A' for Active; 'I' for Inactive)
    1  A    between atoms: C_1  and  O_2
    2  A    between atoms: O_2  and  C_3
    3  A    between atoms: C_6  and  C_7
    4  A    between atoms: C_7  and  C_9
    5  A    between atoms: C_15  and  O_16
                            x       y       z     vdW  Elec       q    Type
                         _______ _______ _______ _____ _____    ______ ____

>  <TORSDO>
F 4

$$$$
