s3_orig_f12_ligand
 OpenBabel10092621083D

 20 20  0  0  1  0  0  0  0  0999 V2000
   -7.6450    0.6290  -11.4820 C   0  0  0  0  0  0  0  0  0  0  0  0
   -6.6190    0.6830  -10.8530 O   0  0  0  0  0  0  0  0  0  0  0  0
   -7.7140    0.5120  -12.9560 C   0  0  0  0  0  3  0  0  0  0  0  0
   -8.2980    1.4400  -13.7110 C   0  0  0  0  0  3  0  0  0  0  0  0
   -8.4840    1.3300  -15.1800 C   0  0  0  0  0  0  0  0  0  0  0  0
   -7.7690    2.1700  -16.0180 C   0  0  0  0  0  3  0  0  0  0  0  0
   -7.9830    2.1470  -17.3910 C   0  0  0  0  0  3  0  0  0  0  0  0
   -8.8630    1.2450  -17.9520 C   0  0  0  0  0  0  0  0  0  0  0  0
   -9.5300    0.3810  -17.1250 C   0  0  0  0  0  3  0  0  0  0  0  0
   -9.3430    0.4220  -15.7440 C   0  0  0  0  0  3  0  0  0  0  0  0
   -9.0950    1.1740  -19.3110 O   0  0  0  0  0  0  0  0  0  0  0  0
  -10.2810    0.5340  -19.7430 C   0  0  0  0  0  1  0  0  0  0  0  0
   -8.7160    0.7100  -10.8650 O   0  0  0  0  0  0  0  0  0  0  0  0
   -9.7520    1.1440  -10.1730 C   0  0  1  0  0  3  0  0  0  0  0  0
   -9.6020    2.6240   -9.8750 C   0  0  0  0  0  2  0  0  0  0  0  0
   -9.9920    3.5340  -11.0340 C   0  0  0  0  0  1  0  0  0  0  0  0
  -11.0610    0.8890  -10.9030 C   0  0  0  0  0  2  0  0  0  0  0  0
  -11.0940   -0.3610  -11.7190 C   0  0  0  0  0  2  0  0  0  0  0  0
  -12.0470    1.2960  -13.3290 C   0  0  0  0  0  1  0  0  0  0  0  0
  -11.7420   -0.1620  -13.0660 C   0  0  0  0  0  2  0  0  0  0  0  0
  1 13  1  0  0  0  0
  1  2  2  0  0  0  0
  3  1  1  0  0  0  0
  4  3  2  0  0  0  0
  5  4  1  0  0  0  0
  6  5  2  0  0  0  0
  7  6  1  0  0  0  0
  8  7  2  0  0  0  0
  8  9  1  0  0  0  0
  9 10  2  0  0  0  0
 10  5  1  0  0  0  0
 11  8  1  0  0  0  0
 12 11  1  0  0  0  0
 13 14  1  0  0  0  0
 14 17  1  6  0  0  0
 14 15  1  0  0  0  0
 16 15  1  0  0  0  0
 18 17  1  0  0  0  0
 19 20  1  0  0  0  0
 20 18  1  0  0  0  0
M  END
>  <MODEL>
1

>  <REMARK>
 VINA RESULT:      -2.3      0.000      0.000
  Name = s3_orig_f12_ligand
  12 active torsions:
  status: ('A' for Active; 'I' for Inactive)
    1  A    between atoms: C_1  and  C_2
    2  A    between atoms: C_2  and  C_3
    3  A    between atoms: C_3  and  C_4
    4  A    between atoms: C_4  and  C_5
    5  A    between atoms: C_5  and  C_6
    6  A    between atoms: C_5  and  O_8
    7  A    between atoms: C_6  and  C_7
    8  A    between atoms: O_8  and  C_9
    9  A    between atoms: C_9  and  C_11
   10  A    between atoms: C_12  and  C_13
   11  A    between atoms: C_16  and  O_17
   12  A    between atoms: O_17  and  C_18
                            x       y       z     vdW  Elec       q    Type
                         _______ _______ _______ _____ _____    ______ ____

>  <TORSDO>
F 9

$$$$
s3_orig_f12_ligand
 OpenBabel10092621083D

 20 20  0  0  1  0  0  0  0  0999 V2000
   -3.9130   -2.6250   -9.8630 C   0  0  0  0  0  0  0  0  0  0  0  0
   -3.8120   -1.4390  -10.0480 O   0  0  0  0  0  0  0  0  0  0  0  0
   -3.7530   -3.2800   -8.5450 C   0  0  0  0  0  3  0  0  0  0  0  0
   -2.7070   -4.0540   -8.2630 C   0  0  0  0  0  3  0  0  0  0  0  0
   -2.5420   -4.8130   -6.9980 C   0  0  0  0  0  0  0  0  0  0  0  0
   -1.2680   -5.0330   -6.5010 C   0  0  0  0  0  3  0  0  0  0  0  0
   -1.0780   -5.8090   -5.3640 C   0  0  0  0  0  3  0  0  0  0  0  0
   -2.1550   -6.3240   -4.6730 C   0  0  0  0  0  0  0  0  0  0  0  0
   -3.4160   -6.0610   -5.1390 C   0  0  0  0  0  3  0  0  0  0  0  0
   -3.6110   -5.3100   -6.2970 C   0  0  0  0  0  3  0  0  0  0  0  0
   -2.0150   -7.0850   -3.5310 O   0  0  0  0  0  0  0  0  0  0  0  0
   -2.9760   -6.9130   -2.5050 C   0  0  0  0  0  1  0  0  0  0  0  0
   -4.1310   -3.3550  -10.8400 O   0  0  0  0  0  0  0  0  0  0  0  0
   -4.5820   -4.3000  -11.6420 C   0  0  1  0  0  3  0  0  0  0  0  0
   -4.5530   -3.8230  -13.0820 C   0  0  0  0  0  2  0  0  0  0  0  0
   -3.4320   -4.4320  -13.9160 C   0  0  0  0  0  1  0  0  0  0  0  0
   -3.7810   -5.5850  -11.5020 C   0  0  0  0  0  2  0  0  0  0  0  0
   -4.5700   -6.7730  -11.0600 C   0  0  0  0  0  2  0  0  0  0  0  0
   -5.9220   -6.4970   -8.9760 C   0  0  0  0  0  1  0  0  0  0  0  0
   -4.5960   -6.9310   -9.5610 C   0  0  0  0  0  2  0  0  0  0  0  0
  1  3  1  0  0  0  0
  2  1  2  0  0  0  0
  3  4  2  0  0  0  0
  4  5  1  0  0  0  0
  5  6  2  0  0  0  0
  5 10  1  0  0  0  0
  6  7  1  0  0  0  0
  7  8  2  0  0  0  0
  8 11  1  0  0  0  0
  9  8  1  0  0  0  0
 10  9  2  0  0  0  0
 11 12  1  0  0  0  0
 13  1  1  0  0  0  0
 14 15  1  6  0  0  0
 14 17  1  0  0  0  0
 14 13  1  0  0  0  0
 16 15  1  0  0  0  0
 17 18  1  0  0  0  0
 18 20  1  0  0  0  0
 20 19  1  0  0  0  0
M  END
>  <MODEL>
2

>  <REMARK>
 VINA RESULT:      -2.1      8.392     12.009
  Name = s3_orig_f12_ligand
  12 active torsions:
  status: ('A' for Active; 'I' for Inactive)
    1  A    between atoms: C_1  and  C_2
    2  A    between atoms: C_2  and  C_3
    3  A    between atoms: C_3  and  C_4
    4  A    between atoms: C_4  and  C_5
    5  A    between atoms: C_5  and  C_6
    6  A    between atoms: C_5  and  O_8
    7  A    between atoms: C_6  and  C_7
    8  A    between atoms: O_8  and  C_9
    9  A    between atoms: C_9  and  C_11
   10  A    between atoms: C_12  and  C_13
   11  A    between atoms: C_16  and  O_17
   12  A    between atoms: O_17  and  C_18
                            x       y       z     vdW  Elec       q    Type
                         _______ _______ _______ _____ _____    ______ ____

>  <TORSDO>
F 9

$$$$
s3_orig_f12_ligand
 OpenBabel10092621083D

 20 20  0  0  1  0  0  0  0  0999 V2000
   -4.6230   -5.4000  -13.0600 C   0  0  0  0  0  0  0  0  0  0  0  0
   -5.3820   -6.1400  -13.6310 O   0  0  0  0  0  0  0  0  0  0  0  0
   -4.6410   -3.9250  -13.1900 C   0  0  0  0  0  3  0  0  0  0  0  0
   -3.5740   -3.2400  -13.5970 C   0  0  0  0  0  3  0  0  0  0  0  0
   -3.5020   -1.7580  -13.6530 C   0  0  0  0  0  0  0  0  0  0  0  0
   -4.4800   -1.0070  -13.0220 C   0  0  0  0  0  3  0  0  0  0  0  0
   -4.4840    0.3780  -13.1260 C   0  0  0  0  0  3  0  0  0  0  0  0
   -3.4810    1.0370  -13.8070 C   0  0  0  0  0  0  0  0  0  0  0  0
   -2.4870    0.2940  -14.3860 C   0  0  0  0  0  3  0  0  0  0  0  0
   -2.4950   -1.0980  -14.3120 C   0  0  0  0  0  3  0  0  0  0  0  0
   -3.4350    2.4120  -13.9220 O   0  0  0  0  0  0  0  0  0  0  0  0
   -2.6030    2.9590  -14.9280 C   0  0  0  0  0  1  0  0  0  0  0  0
   -3.7460   -5.8990  -12.3420 O   0  0  0  0  0  0  0  0  0  0  0  0
   -2.6470   -6.4790  -11.8980 C   0  0  1  0  0  3  0  0  0  0  0  0
   -1.5910   -6.5030  -12.9870 C   0  0  0  0  0  2  0  0  0  0  0  0
   -0.6030   -5.3440  -12.9210 C   0  0  0  0  0  1  0  0  0  0  0  0
   -2.1040   -5.7810  -10.6610 C   0  0  0  0  0  2  0  0  0  0  0  0
   -3.0800   -4.8940   -9.9600 C   0  0  0  0  0  2  0  0  0  0  0  0
   -3.8570   -2.5340   -9.6980 C   0  0  0  0  0  1  0  0  0  0  0  0
   -2.6870   -3.4400  -10.0110 C   0  0  0  0  0  2  0  0  0  0  0  0
  1 13  1  0  0  0  0
  2  1  2  0  0  0  0
  3  1  1  0  0  0  0
  4  3  2  0  0  0  0
  5  4  1  0  0  0  0
  5  6  1  0  0  0  0
  7  6  2  0  0  0  0
  8  7  1  0  0  0  0
  9 10  1  0  0  0  0
  9  8  2  0  0  0  0
 10  5  2  0  0  0  0
 11  8  1  0  0  0  0
 12 11  1  0  0  0  0
 13 14  1  0  0  0  0
 14 15  1  6  0  0  0
 14 17  1  0  0  0  0
 15 16  1  0  0  0  0
 17 18  1  0  0  0  0
 20 18  1  0  0  0  0
 20 19  1  0  0  0  0
M  END
>  <MODEL>
3

>  <REMARK>
 VINA RESULT:      -2.1      6.468      8.666
  Name = s3_orig_f12_ligand
  12 active torsions:
  status: ('A' for Active; 'I' for Inactive)
    1  A    between atoms: C_1  and  C_2
    2  A    between atoms: C_2  and  C_3
    3  A    between atoms: C_3  and  C_4
    4  A    between atoms: C_4  and  C_5
    5  A    between atoms: C_5  and  C_6
    6  A    between atoms: C_5  and  O_8
    7  A    between atoms: C_6  and  C_7
    8  A    between atoms: O_8  and  C_9
    9  A    between atoms: C_9  and  C_11
   10  A    between atoms: C_12  and  C_13
   11  A    between atoms: C_16  and  O_17
   12  A    between atoms: O_17  and  C_18
                            x       y       z     vdW  Elec       q    Type
                         _______ _______ _______ _____ _____    ______ ____

>  <TORSDO>
F 9

$$$$
s3_orig_f12_ligand
 OpenBabel10092621083D

 20 20  0  0  1  0  0  0  0  0999 V2000
   -2.6110   -1.6490  -11.0830 C   0  0  0  0  0  0  0  0  0  0  0  0
   -2.5810   -0.4620  -10.8770 O   0  0  0  0  0  0  0  0  0  0  0  0
   -2.3660   -2.6800  -10.0490 C   0  0  0  0  0  3  0  0  0  0  0  0
   -3.2070   -2.8780   -9.0360 C   0  0  0  0  0  3  0  0  0  0  0  0
   -2.9670   -3.8270   -7.9200 C   0  0  0  0  0  0  0  0  0  0  0  0
   -4.0160   -4.6010   -7.4520 C   0  0  0  0  0  3  0  0  0  0  0  0
   -3.8410   -5.4370   -6.3550 C   0  0  0  0  0  3  0  0  0  0  0  0
   -2.6070   -5.5600   -5.7510 C   0  0  0  0  0  0  0  0  0  0  0  0
   -1.5600   -4.8310   -6.2510 C   0  0  0  0  0  3  0  0  0  0  0  0
   -1.7370   -3.9670   -7.3300 C   0  0  0  0  0  3  0  0  0  0  0  0
   -2.3830   -6.3900   -4.6720 O   0  0  0  0  0  0  0  0  0  0  0  0
   -1.0390   -6.6770   -4.3320 C   0  0  0  0  0  1  0  0  0  0  0  0
   -2.8260   -2.0390  -12.2380 O   0  0  0  0  0  0  0  0  0  0  0  0
   -3.4010   -2.4220  -13.3620 C   0  0  1  0  0  3  0  0  0  0  0  0
   -2.4060   -3.1630  -14.2350 C   0  0  0  0  0  2  0  0  0  0  0  0
   -1.6260   -2.2660  -15.1890 C   0  0  0  0  0  1  0  0  0  0  0  0
   -4.6180   -3.2950  -13.1010 C   0  0  0  0  0  2  0  0  0  0  0  0
   -4.3160   -4.7330  -12.8380 C   0  0  0  0  0  2  0  0  0  0  0  0
   -3.7980   -6.1450  -10.8420 C   0  0  0  0  0  1  0  0  0  0  0  0
   -4.7810   -5.1870  -11.4780 C   0  0  0  0  0  2  0  0  0  0  0  0
  1  2  2  0  0  0  0
  1  3  1  0  0  0  0
  3  4  2  0  0  0  0
  4  5  1  0  0  0  0
  5  6  2  0  0  0  0
  5 10  1  0  0  0  0
  6  7  1  0  0  0  0
  7  8  2  0  0  0  0
  8 11  1  0  0  0  0
  9  8  1  0  0  0  0
 10  9  2  0  0  0  0
 11 12  1  0  0  0  0
 13  1  1  0  0  0  0
 14 15  1  6  0  0  0
 14 17  1  0  0  0  0
 14 13  1  0  0  0  0
 16 15  1  0  0  0  0
 17 18  1  0  0  0  0
 18 20  1  0  0  0  0
 20 19  1  0  0  0  0
M  END
>  <MODEL>
4

>  <REMARK>
 VINA RESULT:      -2.1      7.565     11.297
  Name = s3_orig_f12_ligand
  12 active torsions:
  status: ('A' for Active; 'I' for Inactive)
    1  A    between atoms: C_1  and  C_2
    2  A    between atoms: C_2  and  C_3
    3  A    between atoms: C_3  and  C_4
    4  A    between atoms: C_4  and  C_5
    5  A    between atoms: C_5  and  C_6
    6  A    between atoms: C_5  and  O_8
    7  A    between atoms: C_6  and  C_7
    8  A    between atoms: O_8  and  C_9
    9  A    between atoms: C_9  and  C_11
   10  A    between atoms: C_12  and  C_13
   11  A    between atoms: C_16  and  O_17
   12  A    between atoms: O_17  and  C_18
                            x       y       z     vdW  Elec       q    Type
                         _______ _______ _______ _____ _____    ______ ____

>  <TORSDO>
F 9

$$$$
s3_orig_f12_ligand
 OpenBabel10092621083D

 20 20  0  0  1  0  0  0  0  0999 V2000
   -8.0720    0.8230  -11.1300 C   0  0  0  0  0  0  0  0  0  0  0  0
   -8.5480    1.1440  -10.0710 O   0  0  0  0  0  0  0  0  0  0  0  0
   -8.8440    0.7010  -12.3880 C   0  0  0  0  0  3  0  0  0  0  0  0
   -8.2570    0.7430  -13.5830 C   0  0  0  0  0  3  0  0  0  0  0  0
   -8.9860    0.7250  -14.8750 C   0  0  0  0  0  0  0  0  0  0  0  0
   -8.4270    1.3510  -15.9780 C   0  0  0  0  0  3  0  0  0  0  0  0
   -9.1220    1.4210  -17.1790 C   0  0  0  0  0  3  0  0  0  0  0  0
  -10.3550    0.8160  -17.3160 C   0  0  0  0  0  0  0  0  0  0  0  0
  -10.8820    0.1540  -16.2390 C   0  0  0  0  0  3  0  0  0  0  0  0
  -10.2030    0.1080  -15.0220 C   0  0  0  0  0  3  0  0  0  0  0  0
  -11.0740    0.8460  -18.4940 O   0  0  0  0  0  0  0  0  0  0  0  0
  -12.3890    0.3210  -18.4730 C   0  0  0  0  0  1  0  0  0  0  0  0
   -6.8670    0.5410  -11.1700 O   0  0  0  0  0  0  0  0  0  0  0  0
   -5.5540    0.5630  -11.0460 C   0  0  1  0  0  3  0  0  0  0  0  0
   -4.9530   -0.7170  -11.5960 C   0  0  0  0  0  2  0  0  0  0  0  0
   -4.2630   -1.5800  -10.5470 C   0  0  0  0  0  1  0  0  0  0  0  0
   -4.9440    1.7680  -11.7440 C   0  0  0  0  0  2  0  0  0  0  0  0
   -4.4730    1.5160  -13.1380 C   0  0  0  0  0  2  0  0  0  0  0  0
   -5.8760    3.5530  -13.4890 C   0  0  0  0  0  1  0  0  0  0  0  0
   -5.1430    2.4080  -14.1510 C   0  0  0  0  0  2  0  0  0  0  0  0
  1  2  2  0  0  0  0
  3  1  1  0  0  0  0
  4  3  2  0  0  0  0
  5  4  1  0  0  0  0
  6  5  2  0  0  0  0
  7  6  1  0  0  0  0
  8  7  2  0  0  0  0
  8  9  1  0  0  0  0
  9 10  2  0  0  0  0
 10  5  1  0  0  0  0
 11 12  1  0  0  0  0
 11  8  1  0  0  0  0
 13  1  1  0  0  0  0
 13 14  1  0  0  0  0
 14 17  1  6  0  0  0
 15 14  1  0  0  0  0
 15 16  1  0  0  0  0
 18 17  1  0  0  0  0
 20 19  1  0  0  0  0
 20 18  1  0  0  0  0
M  END
>  <MODEL>
5

>  <REMARK>
 VINA RESULT:      -2.1      2.158      4.052
  Name = s3_orig_f12_ligand
  12 active torsions:
  status: ('A' for Active; 'I' for Inactive)
    1  A    between atoms: C_1  and  C_2
    2  A    between atoms: C_2  and  C_3
    3  A    between atoms: C_3  and  C_4
    4  A    between atoms: C_4  and  C_5
    5  A    between atoms: C_5  and  C_6
    6  A    between atoms: C_5  and  O_8
    7  A    between atoms: C_6  and  C_7
    8  A    between atoms: O_8  and  C_9
    9  A    between atoms: C_9  and  C_11
   10  A    between atoms: C_12  and  C_13
   11  A    between atoms: C_16  and  O_17
   12  A    between atoms: O_17  and  C_18
                            x       y       z     vdW  Elec       q    Type
                         _______ _______ _______ _____ _____    ______ ____

>  <TORSDO>
F 9

$$$$
s3_orig_f12_ligand
 OpenBabel10092621083D

 20 20  0  0  1  0  0  0  0  0999 V2000
   -4.8390   -5.7030  -13.3440 C   0  0  0  0  0  0  0  0  0  0  0  0
   -5.5740   -6.2510  -14.1250 O   0  0  0  0  0  0  0  0  0  0  0  0
   -4.1430   -4.4230  -13.6120 C   0  0  0  0  0  3  0  0  0  0  0  0
   -4.5840   -3.2650  -13.1240 C   0  0  0  0  0  3  0  0  0  0  0  0
   -3.9860   -1.9430  -13.4380 C   0  0  0  0  0  0  0  0  0  0  0  0
   -2.8050   -1.8870  -14.1590 C   0  0  0  0  0  3  0  0  0  0  0  0
   -2.1800   -0.6690  -14.3970 C   0  0  0  0  0  3  0  0  0  0  0  0
   -2.7540    0.5130  -13.9750 C   0  0  0  0  0  0  0  0  0  0  0  0
   -3.9490    0.4570  -13.3080 C   0  0  0  0  0  3  0  0  0  0  0  0
   -4.5640   -0.7650  -13.0380 C   0  0  0  0  0  3  0  0  0  0  0  0
   -2.1790    1.7460  -14.2040 O   0  0  0  0  0  0  0  0  0  0  0  0
   -2.0440    2.6230  -13.1000 C   0  0  0  0  0  1  0  0  0  0  0  0
   -4.6190   -6.2550  -12.2580 O   0  0  0  0  0  0  0  0  0  0  0  0
   -4.4560   -6.5090  -10.9730 C   0  0  1  0  0  3  0  0  0  0  0  0
   -3.0350   -6.9720  -10.7070 C   0  0  0  0  0  2  0  0  0  0  0  0
   -2.9390   -8.3750  -10.1190 C   0  0  0  0  0  1  0  0  0  0  0  0
   -4.7790   -5.2970  -10.1150 C   0  0  0  0  0  2  0  0  0  0  0  0
   -3.5900   -4.5530   -9.6030 C   0  0  0  0  0  2  0  0  0  0  0  0
   -2.6000   -2.3020  -10.0490 C   0  0  0  0  0  1  0  0  0  0  0  0
   -3.8100   -3.0630   -9.5550 C   0  0  0  0  0  2  0  0  0  0  0  0
  1 13  1  0  0  0  0
  2  1  2  0  0  0  0
  3  1  1  0  0  0  0
  3  4  2  0  0  0  0
  5  4  1  0  0  0  0
  5 10  1  0  0  0  0
  6  5  2  0  0  0  0
  7  6  1  0  0  0  0
  7  8  2  0  0  0  0
  8  9  1  0  0  0  0
  9 10  2  0  0  0  0
 11  8  1  0  0  0  0
 11 12  1  0  0  0  0
 13 14  1  0  0  0  0
 14 15  1  6  0  0  0
 14 17  1  0  0  0  0
 15 16  1  0  0  0  0
 17 18  1  0  0  0  0
 18 20  1  0  0  0  0
 19 20  1  0  0  0  0
M  END
>  <MODEL>
6

>  <REMARK>
 VINA RESULT:      -2.1      6.460      8.579
  Name = s3_orig_f12_ligand
  12 active torsions:
  status: ('A' for Active; 'I' for Inactive)
    1  A    between atoms: C_1  and  C_2
    2  A    between atoms: C_2  and  C_3
    3  A    between atoms: C_3  and  C_4
    4  A    between atoms: C_4  and  C_5
    5  A    between atoms: C_5  and  C_6
    6  A    between atoms: C_5  and  O_8
    7  A    between atoms: C_6  and  C_7
    8  A    between atoms: O_8  and  C_9
    9  A    between atoms: C_9  and  C_11
   10  A    between atoms: C_12  and  C_13
   11  A    between atoms: C_16  and  O_17
   12  A    between atoms: O_17  and  C_18
                            x       y       z     vdW  Elec       q    Type
                         _______ _______ _______ _____ _____    ______ ____

>  <TORSDO>
F 9

$$$$
s3_orig_f12_ligand
 OpenBabel10092621083D

 20 20  0  0  1  0  0  0  0  0999 V2000
   -4.5100   -4.0940  -12.8620 C   0  0  0  0  0  0  0  0  0  0  0  0
   -5.1240   -4.4880  -13.8200 O   0  0  0  0  0  0  0  0  0  0  0  0
   -4.3750   -4.8450  -11.5930 C   0  0  0  0  0  3  0  0  0  0  0  0
   -4.3650   -4.2340  -10.4100 C   0  0  0  0  0  3  0  0  0  0  0  0
   -4.1360   -4.9210   -9.1140 C   0  0  0  0  0  0  0  0  0  0  0  0
   -4.4360   -6.2680   -8.9990 C   0  0  0  0  0  3  0  0  0  0  0  0
   -4.3100   -6.9180   -7.7770 C   0  0  0  0  0  3  0  0  0  0  0  0
   -3.8240   -6.2520   -6.6710 C   0  0  0  0  0  0  0  0  0  0  0  0
   -3.4780   -4.9330   -6.8020 C   0  0  0  0  0  3  0  0  0  0  0  0
   -3.6340   -4.2680   -8.0170 C   0  0  0  0  0  3  0  0  0  0  0  0
   -3.6650   -6.8610   -5.4420 O   0  0  0  0  0  0  0  0  0  0  0  0
   -4.2780   -6.2500   -4.3220 C   0  0  0  0  0  1  0  0  0  0  0  0
   -3.9820   -2.9760  -12.9220 O   0  0  0  0  0  0  0  0  0  0  0  0
   -3.6080   -1.7670  -13.2970 C   0  0  1  0  0  3  0  0  0  0  0  0
   -4.6880   -0.7560  -12.9610 C   0  0  0  0  0  2  0  0  0  0  0  0
   -4.8810   -0.5280  -11.4660 C   0  0  0  0  0  1  0  0  0  0  0  0
   -2.2930   -1.3600  -12.6520 C   0  0  0  0  0  2  0  0  0  0  0  0
   -1.3110   -2.4700  -12.4720 C   0  0  0  0  0  2  0  0  0  0  0  0
   -1.6460   -1.7220  -10.1110 C   0  0  0  0  0  1  0  0  0  0  0  0
   -0.9850   -2.7310  -11.0230 C   0  0  0  0  0  2  0  0  0  0  0  0
  1  3  1  0  0  0  0
  2  1  2  0  0  0  0
  3  4  2  0  0  0  0
  4  5  1  0  0  0  0
  5  6  2  0  0  0  0
  5 10  1  0  0  0  0
  6  7  1  0  0  0  0
  7  8  2  0  0  0  0
  8 11  1  0  0  0  0
  9  8  1  0  0  0  0
 10  9  2  0  0  0  0
 11 12  1  0  0  0  0
 13  1  1  0  0  0  0
 14 15  1  1  0  0  0
 14 13  1  0  0  0  0
 14 17  1  0  0  0  0
 15 16  1  0  0  0  0
 17 18  1  0  0  0  0
 18 20  1  0  0  0  0
 20 19  1  0  0  0  0
M  END
>  <MODEL>
7

>  <REMARK>
 VINA RESULT:      -2.1      7.075     10.750
  Name = s3_orig_f12_ligand
  12 active torsions:
  status: ('A' for Active; 'I' for Inactive)
    1  A    between atoms: C_1  and  C_2
    2  A    between atoms: C_2  and  C_3
    3  A    between atoms: C_3  and  C_4
    4  A    between atoms: C_4  and  C_5
    5  A    between atoms: C_5  and  C_6
    6  A    between atoms: C_5  and  O_8
    7  A    between atoms: C_6  and  C_7
    8  A    between atoms: O_8  and  C_9
    9  A    between atoms: C_9  and  C_11
   10  A    between atoms: C_12  and  C_13
   11  A    between atoms: C_16  and  O_17
   12  A    between atoms: O_17  and  C_18
                            x       y       z     vdW  Elec       q    Type
                         _______ _______ _______ _____ _____    ______ ____

>  <TORSDO>
F 9

$$$$
s3_orig_f12_ligand
 OpenBabel10092621083D

 20 20  0  0  1  0  0  0  0  0999 V2000
   -8.0750    0.8280  -11.6650 C   0  0  0  0  0  0  0  0  0  0  0  0
   -8.3880    0.7560  -10.5040 O   0  0  0  0  0  0  0  0  0  0  0  0
   -9.0300    0.7410  -12.7930 C   0  0  0  0  0  3  0  0  0  0  0  0
   -8.6380    0.4320  -14.0280 C   0  0  0  0  0  3  0  0  0  0  0  0
   -9.5320    0.4260  -15.2130 C   0  0  0  0  0  0  0  0  0  0  0  0
   -9.0190    0.7860  -16.4490 C   0  0  0  0  0  3  0  0  0  0  0  0
   -9.8490    0.8690  -17.5610 C   0  0  0  0  0  3  0  0  0  0  0  0
  -11.1850    0.5340  -17.4700 C   0  0  0  0  0  0  0  0  0  0  0  0
  -11.6760    0.1290  -16.2580 C   0  0  0  0  0  3  0  0  0  0  0  0
  -10.8550    0.0750  -15.1320 C   0  0  0  0  0  3  0  0  0  0  0  0
  -12.0420    0.5850  -18.5500 O   0  0  0  0  0  0  0  0  0  0  0  0
  -12.3130    1.8550  -19.1150 C   0  0  0  0  0  1  0  0  0  0  0  0
   -6.8740    0.9470  -11.9430 O   0  0  0  0  0  0  0  0  0  0  0  0
   -5.6790    1.4290  -12.2260 C   0  0  1  0  0  3  0  0  0  0  0  0
   -4.9800    0.5370  -13.2360 C   0  0  0  0  0  2  0  0  0  0  0  0
   -4.7950   -0.9020  -12.7690 C   0  0  0  0  0  1  0  0  0  0  0  0
   -5.7580    2.8520  -12.7550 C   0  0  0  0  0  2  0  0  0  0  0  0
   -5.5560    2.9890  -14.2280 C   0  0  0  0  0  2  0  0  0  0  0  0
   -7.7990    4.0660  -14.0030 C   0  0  0  0  0  1  0  0  0  0  0  0
   -6.8030    3.4340  -14.9490 C   0  0  0  0  0  2  0  0  0  0  0  0
  1  2  2  0  0  0  0
  3  1  1  0  0  0  0
  4  3  2  0  0  0  0
  5 10  1  0  0  0  0
  5  4  1  0  0  0  0
  6  5  2  0  0  0  0
  7  8  2  0  0  0  0
  7  6  1  0  0  0  0
  8  9  1  0  0  0  0
  9 10  2  0  0  0  0
 11  8  1  0  0  0  0
 12 11  1  0  0  0  0
 13  1  1  0  0  0  0
 14 15  1  6  0  0  0
 14 13  1  0  0  0  0
 15 16  1  0  0  0  0
 17 14  1  0  0  0  0
 18 17  1  0  0  0  0
 20 18  1  0  0  0  0
 20 19  1  0  0  0  0
M  END
>  <MODEL>
8

>  <REMARK>
 VINA RESULT:      -2.1      2.069      3.939
  Name = s3_orig_f12_ligand
  12 active torsions:
  status: ('A' for Active; 'I' for Inactive)
    1  A    between atoms: C_1  and  C_2
    2  A    between atoms: C_2  and  C_3
    3  A    between atoms: C_3  and  C_4
    4  A    between atoms: C_4  and  C_5
    5  A    between atoms: C_5  and  C_6
    6  A    between atoms: C_5  and  O_8
    7  A    between atoms: C_6  and  C_7
    8  A    between atoms: O_8  and  C_9
    9  A    between atoms: C_9  and  C_11
   10  A    between atoms: C_12  and  C_13
   11  A    between atoms: C_16  and  O_17
   12  A    between atoms: O_17  and  C_18
                            x       y       z     vdW  Elec       q    Type
                         _______ _______ _______ _____ _____    ______ ____

>  <TORSDO>
F 9

$$$$
s3_orig_f12_ligand
 OpenBabel10092621083D

 20 20  0  0  1  0  0  0  0  0999 V2000
   -8.0190    1.1470  -10.9570 C   0  0  0  0  0  0  0  0  0  0  0  0
   -8.6820    1.2200   -9.9540 O   0  0  0  0  0  0  0  0  0  0  0  0
   -8.5510    0.7490  -12.2810 C   0  0  0  0  0  3  0  0  0  0  0  0
   -8.1480    1.3320  -13.4080 C   0  0  0  0  0  3  0  0  0  0  0  0
   -8.7150    1.0450  -14.7490 C   0  0  0  0  0  0  0  0  0  0  0  0
   -8.1030    1.5800  -15.8720 C   0  0  0  0  0  3  0  0  0  0  0  0
   -8.6580    1.3960  -17.1330 C   0  0  0  0  0  3  0  0  0  0  0  0
   -9.7910    0.6280  -17.3000 C   0  0  0  0  0  0  0  0  0  0  0  0
  -10.3630    0.0590  -16.1930 C   0  0  0  0  0  3  0  0  0  0  0  0
   -9.8300    0.2660  -14.9220 C   0  0  0  0  0  3  0  0  0  0  0  0
  -10.3670    0.4050  -18.5340 O   0  0  0  0  0  0  0  0  0  0  0  0
   -9.7340    0.9710  -19.6660 C   0  0  0  0  0  1  0  0  0  0  0  0
   -6.8060    1.3850  -10.8780 O   0  0  0  0  0  0  0  0  0  0  0  0
   -5.4910    1.3040  -10.9360 C   0  0  1  0  0  3  0  0  0  0  0  0
   -4.8730    1.9080   -9.6890 C   0  0  0  0  0  2  0  0  0  0  0  0
   -3.4390    1.4610   -9.4280 C   0  0  0  0  0  1  0  0  0  0  0  0
   -5.0230   -0.1330  -11.1070 C   0  0  0  0  0  2  0  0  0  0  0  0
   -4.8980   -0.5900  -12.5220 C   0  0  0  0  0  2  0  0  0  0  0  0
   -3.0060    0.5200  -13.7190 C   0  0  0  0  0  1  0  0  0  0  0  0
   -4.4960    0.5190  -13.4600 C   0  0  0  0  0  2  0  0  0  0  0  0
  1 13  1  0  0  0  0
  1  2  2  0  0  0  0
  3  1  1  0  0  0  0
  4  3  2  0  0  0  0
  5  4  1  0  0  0  0
  6  5  2  0  0  0  0
  7  6  1  0  0  0  0
  8  7  2  0  0  0  0
  8  9  1  0  0  0  0
  9 10  2  0  0  0  0
 10  5  1  0  0  0  0
 11  8  1  0  0  0  0
 12 11  1  0  0  0  0
 14 17  1  1  0  0  0
 14 13  1  0  0  0  0
 14 15  1  0  0  0  0
 15 16  1  0  0  0  0
 18 17  1  0  0  0  0
 19 20  1  0  0  0  0
 20 18  1  0  0  0  0
M  END
>  <MODEL>
9

>  <REMARK>
 VINA RESULT:      -2.1      2.256      4.029
  Name = s3_orig_f12_ligand
  12 active torsions:
  status: ('A' for Active; 'I' for Inactive)
    1  A    between atoms: C_1  and  C_2
    2  A    between atoms: C_2  and  C_3
    3  A    between atoms: C_3  and  C_4
    4  A    between atoms: C_4  and  C_5
    5  A    between atoms: C_5  and  C_6
    6  A    between atoms: C_5  and  O_8
    7  A    between atoms: C_6  and  C_7
    8  A    between atoms: O_8  and  C_9
    9  A    between atoms: C_9  and  C_11
   10  A    between atoms: C_12  and  C_13
   11  A    between atoms: C_16  and  O_17
   12  A    between atoms: O_17  and  C_18
                            x       y       z     vdW  Elec       q    Type
                         _______ _______ _______ _____ _____    ______ ____

>  <TORSDO>
F 9

$$$$
