bgox31_3_ligand
     RDKit          3D

 29 30  0  0  0  0  0  0  0  0999 V2000
    9.3634    1.4232    2.3910 C   0  0  0  0  0  0  0  0  0  0  0  0
    8.5804    0.5612    3.1670 O   0  0  0  0  0  0  0  0  0  0  0  0
    7.8157    1.0797    4.2280 C   0  0  0  0  0  0  0  0  0  0  0  0
    7.2508    0.2189    5.1315 C   0  0  0  0  0  0  0  0  0  0  0  0
    6.4894    0.7099    6.1861 C   0  0  0  0  0  0  0  0  0  0  0  0
    6.2363    2.0466    6.3311 C   0  0  0  0  0  0  0  0  0  0  0  0
    5.4378    2.5889    7.4801 C   0  0  0  0  0  0  0  0  0  0  0  0
    5.8049    3.6139    8.0365 O   0  0  0  0  0  0  0  0  0  0  0  0
    4.1978    1.9077    7.9947 C   0  0  0  0  0  0  0  0  0  0  0  0
    3.9936    1.8163    9.3467 C   0  0  0  0  0  0  0  0  0  0  0  0
    2.8719    1.1661    9.7955 C   0  0  0  0  0  0  0  0  0  0  0  0
    1.9347    0.7472    8.9082 C   0  0  0  0  0  0  0  0  0  0  0  0
    2.0869    0.9030    7.5114 C   0  0  0  0  0  0  0  0  0  0  0  0
    3.2752    1.4716    7.0867 C   0  0  0  0  0  0  0  0  0  0  0  0
    6.8046    2.9181    5.3836 C   0  0  0  0  0  0  0  0  0  0  0  0
    6.5862    4.2739    5.6136 O   0  0  0  0  0  0  0  0  0  0  0  0
    7.5794    2.4663    4.3733 C   0  0  0  0  0  0  0  0  0  0  0  0
    9.3196    2.4381    2.8130 H   0  0  0  0  0  0  0  0  0  0  0  0
   10.4054    1.0711    2.3902 H   0  0  0  0  0  0  0  0  0  0  0  0
    8.9804    1.4380    1.3599 H   0  0  0  0  0  0  0  0  0  0  0  0
    7.4001   -0.8655    5.0223 H   0  0  0  0  0  0  0  0  0  0  0  0
    6.0795    0.0046    6.9240 H   0  0  0  0  0  0  0  0  0  0  0  0
    4.7120    2.2541   10.0554 H   0  0  0  0  0  0  0  0  0  0  0  0
    2.7329    0.9847   10.8715 H   0  0  0  0  0  0  0  0  0  0  0  0
    1.0213    0.2680    9.2904 H   0  0  0  0  0  0  0  0  0  0  0  0
    1.3058    0.5903    6.8028 H   0  0  0  0  0  0  0  0  0  0  0  0
    3.4780    1.5730    6.0103 H   0  0  0  0  0  0  0  0  0  0  0  0
    6.9555    4.9477    4.9894 H   0  0  0  0  0  0  0  0  0  0  0  0
    8.0266    3.1774    3.6632 H   0  0  0  0  0  0  0  0  0  0  0  0
  2  1  1  0
  3  2  1  0
  4  3  1  0
  5  4  2  0
  6  5  1  0
  7  6  1  0
  8  7  2  0
  9  7  1  0
 10  9  2  0
 11 10  1  0
 12 11  2  0
 13 12  1  0
 14 13  2  0
 14  9  1  0
 15  6  2  0
 16 15  1  0
 17 15  1  0
 17  3  2  0
  1 18  1  0
  1 19  1  0
  1 20  1  0
  4 21  1  0
  5 22  1  0
 10 23  1  0
 11 24  1  0
 12 25  1  0
 13 26  1  0
 14 27  1  0
 16 28  1  0
 17 29  1  0
M  END
$$$$
