bgox31_3_ligand
 OpenBabel10092621243D

 18 19  0  0  0  0  0  0  0  0999 V2000
   -4.3120   -5.2320    3.1870 C   0  0  0  0  0  0  0  0  0  0  0  0
   -3.3740   -6.2020    2.9560 C   0  0  0  0  0  3  0  0  0  0  0  0
   -2.3950   -6.4710    3.9060 C   0  0  0  0  0  3  0  0  0  0  0  0
   -2.3620   -5.8230    5.1110 C   0  0  0  0  0  0  0  0  0  0  0  0
   -3.3460   -4.8440    5.3440 C   0  0  0  0  0  0  0  0  0  0  0  0
   -4.2830   -4.5410    4.4200 C   0  0  0  0  0  3  0  0  0  0  0  0
   -5.1390   -3.9000    1.3360 C   0  0  0  0  0  1  0  0  0  0  0  0
   -5.2950   -4.9780    2.2140 O   0  0  0  0  0  0  0  0  0  0  0  0
   -1.2950   -6.0870    6.1320 C   0  0  0  0  0  0  0  0  0  0  0  0
   -1.6010   -6.1810    7.3120 O   0  0  0  0  0  0  0  0  0  0  0  0
    0.1580   -6.2270    5.7640 C   0  0  0  0  0  0  0  0  0  0  0  0
    0.7330   -7.4710    5.7550 C   0  0  0  0  0  3  0  0  0  0  0  0
    2.0650   -7.5740    5.4450 C   0  0  0  0  0  3  0  0  0  0  0  0
    2.7480   -6.4760    5.0330 C   0  0  0  0  0  3  0  0  0  0  0  0
    2.1540   -5.1950    4.9570 C   0  0  0  0  0  3  0  0  0  0  0  0
    0.8370   -5.1080    5.3720 C   0  0  0  0  0  3  0  0  0  0  0  0
   -3.2290   -4.1570    6.5500 O   0  0  0  0  0  0  0  0  0  0  0  0
   -3.8200   -3.3850    6.7390 H   0  0  0  0  0  0  0  0  0  0  0  0
  1  6  1  0  0  0  0
  2  1  2  0  0  0  0
  2  3  1  0  0  0  0
  3  4  2  0  0  0  0
  4  5  1  0  0  0  0
  4  9  1  0  0  0  0
  5 17  1  0  0  0  0
  6  5  2  0  0  0  0
  7  8  1  0  0  0  0
  8  1  1  0  0  0  0
  9 10  2  0  0  0  0
 11  9  1  0  0  0  0
 12 11  1  0  0  0  0
 13 12  2  0  0  0  0
 14 13  1  0  0  0  0
 15 14  2  0  0  0  0
 15 16  1  0  0  0  0
 16 11  2  0  0  0  0
 17 18  1  0  0  0  0
M  END
>  <MODEL>
1

>  <REMARK>
 VINA RESULT:      -4.8      0.000      0.000
  Name = bgox31_3_ligand
  5 active torsions:
  status: ('A' for Active; 'I' for Inactive)
    1  A    between atoms: C_1  and  O_2
    2  A    between atoms: O_2  and  C_3
    3  A    between atoms: C_6  and  C_7
    4  A    between atoms: C_7  and  C_9
    5  A    between atoms: C_15  and  O_16
                            x       y       z     vdW  Elec       q    Type
                         _______ _______ _______ _____ _____    ______ ____

>  <TORSDO>
F 4

$$$$
bgox31_3_ligand
 OpenBabel10092621243D

 18 19  0  0  0  0  0  0  0  0999 V2000
    8.8090    3.2440    7.9700 C   0  0  0  0  0  0  0  0  0  0  0  0
    9.7670    3.1970    8.9480 C   0  0  0  0  0  3  0  0  0  0  0  0
    9.4030    3.0190   10.2790 C   0  0  0  0  0  3  0  0  0  0  0  0
    8.0990    2.8370   10.6510 C   0  0  0  0  0  0  0  0  0  0  0  0
    7.1280    2.8670    9.6340 C   0  0  0  0  0  0  0  0  0  0  0  0
    7.4550    3.0750    8.3400 C   0  0  0  0  0  3  0  0  0  0  0  0
    9.8630    2.3860    5.9600 C   0  0  0  0  0  1  0  0  0  0  0  0
    9.2010    3.4210    6.6310 O   0  0  0  0  0  0  0  0  0  0  0  0
    7.6940    2.6720   12.0860 C   0  0  0  0  0  0  0  0  0  0  0  0
    6.9950    3.5240   12.6160 O   0  0  0  0  0  0  0  0  0  0  0  0
    8.1280    1.4950   12.9180 C   0  0  0  0  0  0  0  0  0  0  0  0
    8.1720    0.2490   12.3490 C   0  0  0  0  0  3  0  0  0  0  0  0
    8.5430   -0.8150   13.1320 C   0  0  0  0  0  3  0  0  0  0  0  0
    8.9780   -0.5990   14.4000 C   0  0  0  0  0  3  0  0  0  0  0  0
    9.0180    0.6890   14.9820 C   0  0  0  0  0  3  0  0  0  0  0  0
    8.5420    1.7260   14.1990 C   0  0  0  0  0  3  0  0  0  0  0  0
    5.8090    2.7550   10.0660 O   0  0  0  0  0  0  0  0  0  0  0  0
    5.5510    2.0260   10.6860 H   0  0  0  0  0  0  0  0  0  0  0  0
  1  6  2  0  0  0  0
  1  2  1  0  0  0  0
  2  3  2  0  0  0  0
  3  4  1  0  0  0  0
  4  9  1  0  0  0  0
  5 17  1  0  0  0  0
  5  4  2  0  0  0  0
  6  5  1  0  0  0  0
  7  8  1  0  0  0  0
  8  1  1  0  0  0  0
  9 10  2  0  0  0  0
  9 11  1  0  0  0  0
 11 16  1  0  0  0  0
 12 11  2  0  0  0  0
 12 13  1  0  0  0  0
 13 14  2  0  0  0  0
 14 15  1  0  0  0  0
 16 15  2  0  0  0  0
 17 18  1  0  0  0  0
M  END
>  <MODEL>
2

>  <REMARK>
 VINA RESULT:      -4.7     13.307     14.494
  Name = bgox31_3_ligand
  5 active torsions:
  status: ('A' for Active; 'I' for Inactive)
    1  A    between atoms: C_1  and  O_2
    2  A    between atoms: O_2  and  C_3
    3  A    between atoms: C_6  and  C_7
    4  A    between atoms: C_7  and  C_9
    5  A    between atoms: C_15  and  O_16
                            x       y       z     vdW  Elec       q    Type
                         _______ _______ _______ _____ _____    ______ ____

>  <TORSDO>
F 4

$$$$
bgox31_3_ligand
 OpenBabel10092621243D

 18 19  0  0  0  0  0  0  0  0999 V2000
    8.2340    2.3530   11.4960 C   0  0  0  0  0  0  0  0  0  0  0  0
    9.5750    2.5820   11.3330 C   0  0  0  0  0  3  0  0  0  0  0  0
   10.0710    2.9950   10.1010 C   0  0  0  0  0  3  0  0  0  0  0  0
    9.2460    3.2350    9.0360 C   0  0  0  0  0  0  0  0  0  0  0  0
    7.8690    3.0170    9.2240 C   0  0  0  0  0  0  0  0  0  0  0  0
    7.3700    2.5800   10.4010 C   0  0  0  0  0  3  0  0  0  0  0  0
    7.9670    0.6210   13.1740 C   0  0  0  0  0  1  0  0  0  0  0  0
    7.7540    1.9380   12.7520 O   0  0  0  0  0  0  0  0  0  0  0  0
    9.7730    3.6560    7.6960 C   0  0  0  0  0  0  0  0  0  0  0  0
    9.5990    4.8050    7.3140 O   0  0  0  0  0  0  0  0  0  0  0  0
   10.5030    2.7080    6.7810 C   0  0  0  0  0  0  0  0  0  0  0  0
   11.7990    2.3660    7.0630 C   0  0  0  0  0  3  0  0  0  0  0  0
   12.4550    1.5240    6.2000 C   0  0  0  0  0  3  0  0  0  0  0  0
   11.7790    0.9520    5.1730 C   0  0  0  0  0  3  0  0  0  0  0  0
   10.4180    1.2280    4.9100 C   0  0  0  0  0  3  0  0  0  0  0  0
    9.8130    2.1580    5.7380 C   0  0  0  0  0  3  0  0  0  0  0  0
    7.0770    3.1990    8.0930 O   0  0  0  0  0  0  0  0  0  0  0  0
    6.5300    2.4490    7.7460 H   0  0  0  0  0  0  0  0  0  0  0  0
  1  8  1  0  0  0  0
  2  1  1  0  0  0  0
  3  2  2  0  0  0  0
  4  5  2  0  0  0  0
  4  3  1  0  0  0  0
  5  6  1  0  0  0  0
  6  1  2  0  0  0  0
  8  7  1  0  0  0  0
  9  4  1  0  0  0  0
 10  9  2  0  0  0  0
 11 12  1  0  0  0  0
 11  9  1  0  0  0  0
 13 12  2  0  0  0  0
 14 13  1  0  0  0  0
 15 14  2  0  0  0  0
 15 16  1  0  0  0  0
 16 11  2  0  0  0  0
 17  5  1  0  0  0  0
 18 17  1  0  0  0  0
M  END
>  <MODEL>
3

>  <REMARK>
 VINA RESULT:      -4.7     13.670     14.970
  Name = bgox31_3_ligand
  5 active torsions:
  status: ('A' for Active; 'I' for Inactive)
    1  A    between atoms: C_1  and  O_2
    2  A    between atoms: O_2  and  C_3
    3  A    between atoms: C_6  and  C_7
    4  A    between atoms: C_7  and  C_9
    5  A    between atoms: C_15  and  O_16
                            x       y       z     vdW  Elec       q    Type
                         _______ _______ _______ _____ _____    ______ ____

>  <TORSDO>
F 4

$$$$
bgox31_3_ligand
 OpenBabel10092621243D

 18 19  0  0  0  0  0  0  0  0999 V2000
   -4.3450   -5.0780   -0.1610 C   0  0  0  0  0  0  0  0  0  0  0  0
   -4.6450   -4.0790    0.7270 C   0  0  0  0  0  3  0  0  0  0  0  0
   -4.6720   -4.3400    2.0930 C   0  0  0  0  0  3  0  0  0  0  0  0
   -4.3550   -5.5720    2.5970 C   0  0  0  0  0  0  0  0  0  0  0  0
   -4.0280   -6.5830    1.6750 C   0  0  0  0  0  0  0  0  0  0  0  0
   -4.0320   -6.3620    0.3420 C   0  0  0  0  0  3  0  0  0  0  0  0
   -4.4140   -5.8350   -2.4650 C   0  0  0  0  0  1  0  0  0  0  0  0
   -4.3200   -4.7910   -1.5380 O   0  0  0  0  0  0  0  0  0  0  0  0
   -4.4070   -5.8710    4.0670 C   0  0  0  0  0  0  0  0  0  0  0  0
   -5.3970   -6.4160    4.5350 O   0  0  0  0  0  0  0  0  0  0  0  0
   -3.2860   -5.5090    5.0050 C   0  0  0  0  0  0  0  0  0  0  0  0
   -3.5720   -4.8430    6.1680 C   0  0  0  0  0  3  0  0  0  0  0  0
   -2.5330   -4.4980    6.9950 C   0  0  0  0  0  3  0  0  0  0  0  0
   -1.2770   -4.9280    6.7160 C   0  0  0  0  0  3  0  0  0  0  0  0
   -0.9710   -5.6850    5.5610 C   0  0  0  0  0  3  0  0  0  0  0  0
   -2.0240   -5.9310    4.6970 C   0  0  0  0  0  3  0  0  0  0  0  0
   -3.7890   -7.8390    2.2270 O   0  0  0  0  0  0  0  0  0  0  0  0
   -4.3340   -8.6160    1.9440 H   0  0  0  0  0  0  0  0  0  0  0  0
  1  6  2  0  0  0  0
  1  2  1  0  0  0  0
  2  3  2  0  0  0  0
  3  4  1  0  0  0  0
  4  9  1  0  0  0  0
  5 17  1  0  0  0  0
  5  4  2  0  0  0  0
  6  5  1  0  0  0  0
  7  8  1  0  0  0  0
  8  1  1  0  0  0  0
  9 10  2  0  0  0  0
  9 11  1  0  0  0  0
 11 12  1  0  0  0  0
 12 13  2  0  0  0  0
 14 13  1  0  0  0  0
 15 14  2  0  0  0  0
 16 11  2  0  0  0  0
 16 15  1  0  0  0  0
 18 17  1  0  0  0  0
M  END
>  <MODEL>
4

>  <REMARK>
 VINA RESULT:      -4.7      2.423      4.186
  Name = bgox31_3_ligand
  5 active torsions:
  status: ('A' for Active; 'I' for Inactive)
    1  A    between atoms: C_1  and  O_2
    2  A    between atoms: O_2  and  C_3
    3  A    between atoms: C_6  and  C_7
    4  A    between atoms: C_7  and  C_9
    5  A    between atoms: C_15  and  O_16
                            x       y       z     vdW  Elec       q    Type
                         _______ _______ _______ _____ _____    ______ ____

>  <TORSDO>
F 4

$$$$
bgox31_3_ligand
 OpenBabel10092621243D

 18 19  0  0  0  0  0  0  0  0999 V2000
    2.8250   -7.4480    5.8740 C   0  0  0  0  0  0  0  0  0  0  0  0
    2.6090   -6.1780    5.4090 C   0  0  0  0  0  3  0  0  0  0  0  0
    1.3500   -5.8030    4.9520 C   0  0  0  0  0  3  0  0  0  0  0  0
    0.2830   -6.6600    4.9960 C   0  0  0  0  0  0  0  0  0  0  0  0
    0.5150   -7.9540    5.4960 C   0  0  0  0  0  0  0  0  0  0  0  0
    1.7380   -8.3510    5.9100 C   0  0  0  0  0  3  0  0  0  0  0  0
    4.2710   -8.2480    7.6500 C   0  0  0  0  0  1  0  0  0  0  0  0
    4.1060   -7.8030    6.3340 O   0  0  0  0  0  0  0  0  0  0  0  0
   -1.0730   -6.2750    4.4820 C   0  0  0  0  0  0  0  0  0  0  0  0
   -1.4080   -6.6150    3.3560 O   0  0  0  0  0  0  0  0  0  0  0  0
   -2.0450   -5.4630    5.2950 C   0  0  0  0  0  0  0  0  0  0  0  0
   -1.7300   -5.1350    6.5880 C   0  0  0  0  0  3  0  0  0  0  0  0
   -2.6430   -4.4190    7.3220 C   0  0  0  0  0  3  0  0  0  0  0  0
   -3.7650   -3.9450    6.7240 C   0  0  0  0  0  3  0  0  0  0  0  0
   -4.0720   -4.2040    5.3680 C   0  0  0  0  0  3  0  0  0  0  0  0
   -3.1810   -5.0120    4.6850 C   0  0  0  0  0  3  0  0  0  0  0  0
   -0.5790   -8.8150    5.4510 O   0  0  0  0  0  0  0  0  0  0  0  0
   -1.1040   -8.9920    6.2730 H   0  0  0  0  0  0  0  0  0  0  0  0
  1  6  1  0  0  0  0
  1  8  1  0  0  0  0
  2  1  2  0  0  0  0
  3  4  2  0  0  0  0
  3  2  1  0  0  0  0
  4  5  1  0  0  0  0
  5  6  2  0  0  0  0
  8  7  1  0  0  0  0
  9  4  1  0  0  0  0
  9 11  1  0  0  0  0
 10  9  2  0  0  0  0
 11 12  1  0  0  0  0
 12 13  2  0  0  0  0
 14 13  1  0  0  0  0
 15 14  2  0  0  0  0
 16 11  2  0  0  0  0
 16 15  1  0  0  0  0
 17  5  1  0  0  0  0
 17 18  1  0  0  0  0
M  END
>  <MODEL>
5

>  <REMARK>
 VINA RESULT:      -4.6      2.304      6.309
  Name = bgox31_3_ligand
  5 active torsions:
  status: ('A' for Active; 'I' for Inactive)
    1  A    between atoms: C_1  and  O_2
    2  A    between atoms: O_2  and  C_3
    3  A    between atoms: C_6  and  C_7
    4  A    between atoms: C_7  and  C_9
    5  A    between atoms: C_15  and  O_16
                            x       y       z     vdW  Elec       q    Type
                         _______ _______ _______ _____ _____    ______ ____

>  <TORSDO>
F 4

$$$$
bgox31_3_ligand
 OpenBabel10092621243D

 18 19  0  0  0  0  0  0  0  0999 V2000
   10.3430    2.5750   10.9750 C   0  0  0  0  0  0  0  0  0  0  0  0
    9.1920    2.2430   11.6390 C   0  0  0  0  0  3  0  0  0  0  0  0
    7.9520    2.4960   11.0610 C   0  0  0  0  0  3  0  0  0  0  0  0
    7.8370    3.0310    9.8060 C   0  0  0  0  0  0  0  0  0  0  0  0
    9.0290    3.3470    9.1280 C   0  0  0  0  0  0  0  0  0  0  0  0
   10.2430    3.1440    9.6860 C   0  0  0  0  0  3  0  0  0  0  0  0
   12.6990    3.0860   11.2450 C   0  0  0  0  0  1  0  0  0  0  0  0
   11.5860    2.3070   11.5770 O   0  0  0  0  0  0  0  0  0  0  0  0
    6.5050    3.3330    9.1850 C   0  0  0  0  0  0  0  0  0  0  0  0
    6.1810    2.7640    8.1520 O   0  0  0  0  0  0  0  0  0  0  0  0
    5.5460    4.3300    9.7770 C   0  0  0  0  0  0  0  0  0  0  0  0
    4.7220    3.9440   10.8020 C   0  0  0  0  0  3  0  0  0  0  0  0
    3.8340    4.8610   11.3070 C   0  0  0  0  0  3  0  0  0  0  0  0
    3.8770    6.1480   10.8790 C   0  0  0  0  0  3  0  0  0  0  0  0
    4.7730    6.5870    9.8780 C   0  0  0  0  0  3  0  0  0  0  0  0
    5.5860    5.6170    9.3180 C   0  0  0  0  0  3  0  0  0  0  0  0
    8.8640    3.9600    7.8880 O   0  0  0  0  0  0  0  0  0  0  0  0
    8.9860    4.9390    7.8000 H   0  0  0  0  0  0  0  0  0  0  0  0
  1  8  1  0  0  0  0
  1  2  1  0  0  0  0
  3  2  2  0  0  0  0
  4  3  1  0  0  0  0
  5  6  1  0  0  0  0
  5  4  2  0  0  0  0
  6  1  2  0  0  0  0
  7  8  1  0  0  0  0
  9 11  1  0  0  0  0
  9  4  1  0  0  0  0
 10  9  2  0  0  0  0
 11 12  1  0  0  0  0
 12 13  2  0  0  0  0
 14 13  1  0  0  0  0
 15 14  2  0  0  0  0
 16 11  2  0  0  0  0
 16 15  1  0  0  0  0
 17  5  1  0  0  0  0
 18 17  1  0  0  0  0
M  END
>  <MODEL>
6

>  <REMARK>
 VINA RESULT:      -4.5     13.118     15.453
  Name = bgox31_3_ligand
  5 active torsions:
  status: ('A' for Active; 'I' for Inactive)
    1  A    between atoms: C_1  and  O_2
    2  A    between atoms: O_2  and  C_3
    3  A    between atoms: C_6  and  C_7
    4  A    between atoms: C_7  and  C_9
    5  A    between atoms: C_15  and  O_16
                            x       y       z     vdW  Elec       q    Type
                         _______ _______ _______ _____ _____    ______ ____

>  <TORSDO>
F 4

$$$$
bgox31_3_ligand
 OpenBabel10092621243D

 18 19  0  0  0  0  0  0  0  0999 V2000
    4.7560    5.0830   11.6870 C   0  0  0  0  0  0  0  0  0  0  0  0
    5.8870    5.2400   12.4440 C   0  0  0  0  0  3  0  0  0  0  0  0
    6.9980    4.4340   12.2200 C   0  0  0  0  0  3  0  0  0  0  0  0
    7.0230    3.5030   11.2180 C   0  0  0  0  0  0  0  0  0  0  0  0
    5.8630    3.3670   10.4340 C   0  0  0  0  0  0  0  0  0  0  0  0
    4.7590    4.1140   10.6580 C   0  0  0  0  0  3  0  0  0  0  0  0
    2.3550    5.3720   11.8780 C   0  0  0  0  0  1  0  0  0  0  0  0
    3.6450    5.9110   11.9290 O   0  0  0  0  0  0  0  0  0  0  0  0
    8.2070    2.6110   10.9850 C   0  0  0  0  0  0  0  0  0  0  0  0
    8.7780    2.6380    9.9040 O   0  0  0  0  0  0  0  0  0  0  0  0
    8.7180    1.6580   12.0330 C   0  0  0  0  0  0  0  0  0  0  0  0
    9.8130    2.0060   12.7810 C   0  0  0  0  0  3  0  0  0  0  0  0
   10.2810    1.1120   13.7100 C   0  0  0  0  0  3  0  0  0  0  0  0
    9.5860   -0.0280   13.9580 C   0  0  0  0  0  3  0  0  0  0  0  0
    8.4090   -0.3700   13.2540 C   0  0  0  0  0  3  0  0  0  0  0  0
    8.0200    0.5050   12.2550 C   0  0  0  0  0  3  0  0  0  0  0  0
    5.9040    2.3560    9.4770 O   0  0  0  0  0  0  0  0  0  0  0  0
    6.0880    2.5790    8.5300 H   0  0  0  0  0  0  0  0  0  0  0  0
  1  8  1  0  0  0  0
  1  2  1  0  0  0  0
  3  2  2  0  0  0  0
  4  3  1  0  0  0  0
  5  6  1  0  0  0  0
  5  4  2  0  0  0  0
  6  1  2  0  0  0  0
  7  8  1  0  0  0  0
  9  4  1  0  0  0  0
  9 11  1  0  0  0  0
 10  9  2  0  0  0  0
 11 16  2  0  0  0  0
 11 12  1  0  0  0  0
 12 13  2  0  0  0  0
 13 14  1  0  0  0  0
 15 14  2  0  0  0  0
 16 15  1  0  0  0  0
 17  5  1  0  0  0  0
 18 17  1  0  0  0  0
M  END
>  <MODEL>
7

>  <REMARK>
 VINA RESULT:      -4.5     13.160     14.409
  Name = bgox31_3_ligand
  5 active torsions:
  status: ('A' for Active; 'I' for Inactive)
    1  A    between atoms: C_1  and  O_2
    2  A    between atoms: O_2  and  C_3
    3  A    between atoms: C_6  and  C_7
    4  A    between atoms: C_7  and  C_9
    5  A    between atoms: C_15  and  O_16
                            x       y       z     vdW  Elec       q    Type
                         _______ _______ _______ _____ _____    ______ ____

>  <TORSDO>
F 4

$$$$
bgox31_3_ligand
 OpenBabel10092621243D

 18 19  0  0  0  0  0  0  0  0999 V2000
    2.7070   -6.8240    5.0200 C   0  0  0  0  0  0  0  0  0  0  0  0
    2.3370   -5.5150    4.8600 C   0  0  0  0  0  3  0  0  0  0  0  0
    1.0540   -5.1030    5.2010 C   0  0  0  0  0  3  0  0  0  0  0  0
    0.1420   -5.9640    5.7490 C   0  0  0  0  0  0  0  0  0  0  0  0
    0.5430   -7.3000    5.9280 C   0  0  0  0  0  0  0  0  0  0  0  0
    1.7720   -7.7310    5.5690 C   0  0  0  0  0  3  0  0  0  0  0  0
    4.5950   -8.3220    5.3050 C   0  0  0  0  0  1  0  0  0  0  0  0
    4.0120   -7.2190    4.6710 O   0  0  0  0  0  0  0  0  0  0  0  0
   -1.2530   -5.5350    6.0960 C   0  0  0  0  0  0  0  0  0  0  0  0
   -1.5150   -5.2130    7.2470 O   0  0  0  0  0  0  0  0  0  0  0  0
   -2.3640   -5.5000    5.0800 C   0  0  0  0  0  0  0  0  0  0  0  0
   -3.4250   -4.6550    5.2740 C   0  0  0  0  0  3  0  0  0  0  0  0
   -4.4410   -4.6590    4.3510 C   0  0  0  0  0  3  0  0  0  0  0  0
   -4.3170   -5.3920    3.2160 C   0  0  0  0  0  3  0  0  0  0  0  0
   -3.1930   -6.2100    2.9570 C   0  0  0  0  0  3  0  0  0  0  0  0
   -2.2340   -6.2600    3.9530 C   0  0  0  0  0  3  0  0  0  0  0  0
   -0.4410   -8.1570    6.4160 O   0  0  0  0  0  0  0  0  0  0  0  0
   -0.2250   -8.7970    7.1410 H   0  0  0  0  0  0  0  0  0  0  0  0
  1  6  1  0  0  0  0
  2  1  2  0  0  0  0
  2  3  1  0  0  0  0
  3  4  2  0  0  0  0
  4  5  1  0  0  0  0
  4  9  1  0  0  0  0
  5 17  1  0  0  0  0
  6  5  2  0  0  0  0
  8  1  1  0  0  0  0
  8  7  1  0  0  0  0
  9 10  2  0  0  0  0
 11 12  1  0  0  0  0
 11  9  1  0  0  0  0
 13 12  2  0  0  0  0
 14 13  1  0  0  0  0
 15 14  2  0  0  0  0
 15 16  1  0  0  0  0
 16 11  2  0  0  0  0
 17 18  1  0  0  0  0
M  END
>  <MODEL>
8

>  <REMARK>
 VINA RESULT:      -4.4      1.794      6.049
  Name = bgox31_3_ligand
  5 active torsions:
  status: ('A' for Active; 'I' for Inactive)
    1  A    between atoms: C_1  and  O_2
    2  A    between atoms: O_2  and  C_3
    3  A    between atoms: C_6  and  C_7
    4  A    between atoms: C_7  and  C_9
    5  A    between atoms: C_15  and  O_16
                            x       y       z     vdW  Elec       q    Type
                         _______ _______ _______ _____ _____    ______ ____

>  <TORSDO>
F 4

$$$$
bgox31_3_ligand
 OpenBabel10092621243D

 18 19  0  0  0  0  0  0  0  0999 V2000
    0.6090   -6.2960    4.8060 C   0  0  0  0  0  0  0  0  0  0  0  0
    0.4580   -5.4340    5.8590 C   0  0  0  0  0  3  0  0  0  0  0  0
   -0.8010   -4.9460    6.1920 C   0  0  0  0  0  3  0  0  0  0  0  0
   -1.9270   -5.3420    5.5230 C   0  0  0  0  0  0  0  0  0  0  0  0
   -1.7600   -6.2440    4.4560 C   0  0  0  0  0  0  0  0  0  0  0  0
   -0.5420   -6.7020    4.0920 C   0  0  0  0  0  3  0  0  0  0  0  0
    2.9830   -5.9040    4.5000 C   0  0  0  0  0  1  0  0  0  0  0  0
    1.8920   -6.7790    4.4890 O   0  0  0  0  0  0  0  0  0  0  0  0
   -3.2860   -4.8020    5.8560 C   0  0  0  0  0  0  0  0  0  0  0  0
   -3.9270   -4.2130    4.9970 O   0  0  0  0  0  0  0  0  0  0  0  0
   -3.8970   -4.9400    7.2250 C   0  0  0  0  0  0  0  0  0  0  0  0
   -3.4250   -5.9030    8.0770 C   0  0  0  0  0  3  0  0  0  0  0  0
   -4.0150   -6.0320    9.3100 C   0  0  0  0  0  3  0  0  0  0  0  0
   -4.9520   -5.1330    9.7060 C   0  0  0  0  0  3  0  0  0  0  0  0
   -5.3970   -4.0810    8.8720 C   0  0  0  0  0  3  0  0  0  0  0  0
   -4.8550   -4.0400    7.6000 C   0  0  0  0  0  3  0  0  0  0  0  0
   -2.9210   -6.5600    3.7550 O   0  0  0  0  0  0  0  0  0  0  0  0
   -2.8760   -6.7530    2.7840 H   0  0  0  0  0  0  0  0  0  0  0  0
  1  2  1  0  0  0  0
  2  3  2  0  0  0  0
  4  9  1  0  0  0  0
  4  3  1  0  0  0  0
  5  4  2  0  0  0  0
  6  5  1  0  0  0  0
  6  1  2  0  0  0  0
  8  7  1  0  0  0  0
  8  1  1  0  0  0  0
  9 11  1  0  0  0  0
 10  9  2  0  0  0  0
 11 16  2  0  0  0  0
 11 12  1  0  0  0  0
 12 13  2  0  0  0  0
 13 14  1  0  0  0  0
 15 14  2  0  0  0  0
 16 15  1  0  0  0  0
 17  5  1  0  0  0  0
 18 17  1  0  0  0  0
M  END
>  <MODEL>
9

>  <REMARK>
 VINA RESULT:      -4.4      2.652      5.715
  Name = bgox31_3_ligand
  5 active torsions:
  status: ('A' for Active; 'I' for Inactive)
    1  A    between atoms: C_1  and  O_2
    2  A    between atoms: O_2  and  C_3
    3  A    between atoms: C_6  and  C_7
    4  A    between atoms: C_7  and  C_9
    5  A    between atoms: C_15  and  O_16
                            x       y       z     vdW  Elec       q    Type
                         _______ _______ _______ _____ _____    ______ ____

>  <TORSDO>
F 4

$$$$
