ox1_orig_f12_dockpose4
     RDKit          3D

 17 18  0  0  0  0  0  0  0  0999 V2000
   -5.4200    4.6590    3.2530 C   0  0  0  0  0  0  0  0  0  0  0  0
   -5.5760    3.3000    2.9160 O   0  0  0  0  0  0  0  0  0  0  0  0
   -4.5610    2.6330    2.2840 C   0  0  0  0  0  0  0  0  0  0  0  0
   -4.5640    2.6050    0.8930 C   0  0  0  0  0  0  0  0  0  0  0  0
   -3.5510    1.9430    0.2130 C   0  0  0  0  0  0  0  0  0  0  0  0
   -2.5230    1.3130    0.9090 C   0  0  0  0  0  0  0  0  0  0  0  0
   -1.4160    0.5870    0.1920 C   0  0  0  0  0  0  0  0  0  0  0  0
   -1.3400   -0.6160    0.3350 O   0  0  0  0  0  0  0  0  0  0  0  0
   -0.4500    1.2620   -0.7040 C   0  0  0  0  0  0  0  0  0  0  0  0
    0.4140    0.5440   -1.5210 C   0  0  0  0  0  0  0  0  0  0  0  0
    1.3090    1.1950   -2.3390 C   0  0  0  0  0  0  0  0  0  0  0  0
    1.3560    2.5800   -2.3570 C   0  0  0  0  0  0  0  0  0  0  0  0
    0.4870    3.3130   -1.5610 C   0  0  0  0  0  0  0  0  0  0  0  0
   -0.4350    2.6630   -0.7440 C   0  0  0  0  0  0  0  0  0  0  0  0
   -2.5300    1.3390    2.2990 C   0  0  0  0  0  0  0  0  0  0  0  0
   -1.5320    0.7130    2.9720 O   0  0  0  0  0  0  0  0  0  0  0  0
   -3.5470    1.9930    2.9750 C   0  0  0  0  0  0  0  0  0  0  0  0
  2  1  1  0
  3  2  1  0
  4  3  1  0
  5  4  2  0
  6  5  1  0
  7  6  1  0
  8  7  2  0
  9  7  1  0
 10  9  2  0
 11 10  1  0
 12 11  2  0
 13 12  1  0
 14 13  2  0
 14  9  1  0
 15  6  2  0
 16 15  1  0
 17 15  1  0
 17  3  2  0
M  END
