shuffle_control_esm0_ligand
 OpenBabel10092621113D

 20 20  0  0  1  0  0  0  0  0999 V2000
    1.3000    3.7230    4.0360 C   0  0  0  0  0  0  0  0  0  0  0  0
    1.1980    4.9070    3.9770 O   0  0  0  0  0  0  0  0  0  0  0  0
    2.2680    2.9280    3.2210 C   0  0  0  0  0  3  0  0  0  0  0  0
    3.5170    3.3300    3.0670 C   0  0  0  0  0  3  0  0  0  0  0  0
    4.4950    2.6520    2.1650 C   0  0  0  0  0  0  0  0  0  0  0  0
    5.2360    3.4240    1.3060 C   0  0  0  0  0  3  0  0  0  0  0  0
    6.1390    2.8450    0.4260 C   0  0  0  0  0  3  0  0  0  0  0  0
    6.3140    1.4740    0.4070 C   0  0  0  0  0  0  0  0  0  0  0  0
    5.5680    0.6890    1.2850 C   0  0  0  0  0  3  0  0  0  0  0  0
    4.6630    1.2800    2.1720 C   0  0  0  0  0  3  0  0  0  0  0  0
    7.1720    0.8710   -0.4430 O   0  0  0  0  0  0  0  0  0  0  0  0
    7.6170   -0.4560   -0.1680 C   0  0  0  0  0  1  0  0  0  0  0  0
    0.5220    2.9790    4.8620 O   0  0  0  0  0  0  0  0  0  0  0  0
   -0.1460    1.7980    4.4280 C   0  0  2  0  0  3  0  0  0  0  0  0
   -1.5250    2.0850    3.8600 C   0  0  0  0  0  2  0  0  0  0  0  0
   -2.2840    0.9060    3.3220 C   0  0  0  0  0  1  0  0  0  0  0  0
   -0.3160    0.9050    5.6120 C   0  0  0  0  0  2  0  0  0  0  0  0
   -0.9870    1.5400    6.7810 C   0  0  0  0  0  2  0  0  0  0  0  0
   -3.4890    1.0460    6.8500 C   0  0  0  0  0  1  0  0  0  0  0  0
   -2.1300    0.7970    7.4030 C   0  0  0  0  0  2  0  0  0  0  0  0
  1 13  1  0  0  0  0
  2  1  2  0  0  0  0
  3  1  1  0  0  0  0
  4  3  2  0  0  0  0
  5 10  1  0  0  0  0
  5  4  1  0  0  0  0
  6  5  2  0  0  0  0
  7  6  1  0  0  0  0
  8  7  2  0  0  0  0
  8  9  1  0  0  0  0
  9 10  2  0  0  0  0
 11 12  1  0  0  0  0
 11  8  1  0  0  0  0
 14 15  1  1  0  0  0
 14 13  1  0  0  0  0
 14 17  1  0  0  0  0
 16 15  1  0  0  0  0
 17 18  1  0  0  0  0
 18 20  1  0  0  0  0
 19 20  1  0  0  0  0
M  END
>  <MODEL>
1

>  <REMARK>
 VINA RESULT:      -4.9      0.000      0.000
  Name = shuffle_control_esm0_ligand
  12 active torsions:
  status: ('A' for Active; 'I' for Inactive)
    1  A    between atoms: C_1  and  C_2
    2  A    between atoms: C_2  and  C_3
    3  A    between atoms: C_3  and  C_4
    4  A    between atoms: C_4  and  C_5
    5  A    between atoms: C_5  and  C_6
    6  A    between atoms: C_5  and  O_8
    7  A    between atoms: C_6  and  C_7
    8  A    between atoms: O_8  and  C_9
    9  A    between atoms: C_9  and  C_11
   10  A    between atoms: C_12  and  C_13
   11  A    between atoms: C_16  and  O_17
   12  A    between atoms: O_17  and  C_18
                            x       y       z     vdW  Elec       q    Type
                         _______ _______ _______ _____ _____    ______ ____

>  <TORSDO>
F 9

$$$$
shuffle_control_esm0_ligand
 OpenBabel10092621113D

 20 20  0  0  1  0  0  0  0  0999 V2000
    1.4540    4.3410    3.0320 C   0  0  0  0  0  0  0  0  0  0  0  0
    1.1670    5.4910    2.9270 O   0  0  0  0  0  0  0  0  0  0  0  0
    0.8490    3.4200    4.0410 C   0  0  0  0  0  3  0  0  0  0  0  0
   -0.2700    2.7680    3.7820 C   0  0  0  0  0  3  0  0  0  0  0  0
   -0.9910    1.9350    4.7900 C   0  0  0  0  0  0  0  0  0  0  0  0
   -2.1700    1.3380    4.4220 C   0  0  0  0  0  3  0  0  0  0  0  0
   -2.8950    0.5770    5.3270 C   0  0  0  0  0  3  0  0  0  0  0  0
   -2.4350    0.3990    6.6190 C   0  0  0  0  0  0  0  0  0  0  0  0
   -1.2320    0.9980    6.9910 C   0  0  0  0  0  3  0  0  0  0  0  0
   -0.5040    1.7610    6.0720 C   0  0  0  0  0  3  0  0  0  0  0  0
   -3.1170   -0.3230    7.5320 O   0  0  0  0  0  0  0  0  0  0  0  0
   -3.3150   -1.7190    7.3190 C   0  0  0  0  0  1  0  0  0  0  0  0
    2.3810    3.7600    2.2300 O   0  0  0  0  0  0  0  0  0  0  0  0
    3.1610    2.6420    2.6450 C   0  0  2  0  0  3  0  0  0  0  0  0
    4.6430    2.9620    2.7220 C   0  0  0  0  0  2  0  0  0  0  0  0
    5.2680    3.5310    1.4810 C   0  0  0  0  0  1  0  0  0  0  0  0
    2.9790    1.5560    1.6360 C   0  0  0  0  0  2  0  0  0  0  0  0
    2.2440    0.3590    2.1350 C   0  0  0  0  0  2  0  0  0  0  0  0
    1.3750   -0.8340    4.2150 C   0  0  0  0  0  1  0  0  0  0  0  0
    2.4380   -0.0140    3.5720 C   0  0  0  0  0  2  0  0  0  0  0  0
  1  3  1  0  0  0  0
  2  1  2  0  0  0  0
  4  3  2  0  0  0  0
  4  5  1  0  0  0  0
  5 10  1  0  0  0  0
  6  5  2  0  0  0  0
  6  7  1  0  0  0  0
  7  8  2  0  0  0  0
  8  9  1  0  0  0  0
  8 11  1  0  0  0  0
 10  9  2  0  0  0  0
 12 11  1  0  0  0  0
 13 14  1  0  0  0  0
 13  1  1  0  0  0  0
 14 17  1  6  0  0  0
 14 15  1  0  0  0  0
 16 15  1  0  0  0  0
 17 18  1  0  0  0  0
 18 20  1  0  0  0  0
 20 19  1  0  0  0  0
M  END
>  <MODEL>
2

>  <REMARK>
 VINA RESULT:      -4.9      2.281      7.374
  Name = shuffle_control_esm0_ligand
  12 active torsions:
  status: ('A' for Active; 'I' for Inactive)
    1  A    between atoms: C_1  and  C_2
    2  A    between atoms: C_2  and  C_3
    3  A    between atoms: C_3  and  C_4
    4  A    between atoms: C_4  and  C_5
    5  A    between atoms: C_5  and  C_6
    6  A    between atoms: C_5  and  O_8
    7  A    between atoms: C_6  and  C_7
    8  A    between atoms: O_8  and  C_9
    9  A    between atoms: C_9  and  C_11
   10  A    between atoms: C_12  and  C_13
   11  A    between atoms: C_16  and  O_17
   12  A    between atoms: O_17  and  C_18
                            x       y       z     vdW  Elec       q    Type
                         _______ _______ _______ _____ _____    ______ ____

>  <TORSDO>
F 9

$$$$
shuffle_control_esm0_ligand
 OpenBabel10092621113D

 20 20  0  0  1  0  0  0  0  0999 V2000
    1.3770    3.2720    4.1740 C   0  0  0  0  0  0  0  0  0  0  0  0
    2.5230    3.2740    4.4920 O   0  0  0  0  0  0  0  0  0  0  0  0
    0.4030    2.2130    4.5760 C   0  0  0  0  0  3  0  0  0  0  0  0
   -0.2950    2.3190    5.6930 C   0  0  0  0  0  3  0  0  0  0  0  0
   -1.1860    1.2410    6.2140 C   0  0  0  0  0  0  0  0  0  0  0  0
   -0.6340    0.0190    6.5040 C   0  0  0  0  0  3  0  0  0  0  0  0
   -1.4200   -1.0270    6.9640 C   0  0  0  0  0  3  0  0  0  0  0  0
   -2.7790   -0.8520    7.1470 C   0  0  0  0  0  0  0  0  0  0  0  0
   -3.3400    0.3920    6.8610 C   0  0  0  0  0  3  0  0  0  0  0  0
   -2.5410    1.4430    6.4020 C   0  0  0  0  0  3  0  0  0  0  0  0
   -3.5800   -1.8480    7.5800 O   0  0  0  0  0  0  0  0  0  0  0  0
   -4.0190   -2.8470    6.6620 C   0  0  0  0  0  1  0  0  0  0  0  0
    0.8500    4.2500    3.3960 O   0  0  0  0  0  0  0  0  0  0  0  0
    0.8100    4.1610    1.9750 C   0  0  2  0  0  3  0  0  0  0  0  0
    1.4720    5.3470    1.2980 C   0  0  0  0  0  2  0  0  0  0  0  0
    1.2310    6.6910    1.9230 C   0  0  0  0  0  1  0  0  0  0  0  0
   -0.6230    4.1350    1.5550 C   0  0  0  0  0  2  0  0  0  0  0  0
   -1.1530    2.7810    1.2320 C   0  0  0  0  0  2  0  0  0  0  0  0
   -2.6840    1.3710    2.7070 C   0  0  0  0  0  1  0  0  0  0  0  0
   -2.5390    2.4580    1.7010 C   0  0  0  0  0  2  0  0  0  0  0  0
  1  2  2  0  0  0  0
  1  3  1  0  0  0  0
  3  4  2  0  0  0  0
  4  5  1  0  0  0  0
  5 10  2  0  0  0  0
  5  6  1  0  0  0  0
  6  7  2  0  0  0  0
  7  8  1  0  0  0  0
  8 11  1  0  0  0  0
  9  8  2  0  0  0  0
 10  9  1  0  0  0  0
 12 11  1  0  0  0  0
 13  1  1  0  0  0  0
 14 15  1  6  0  0  0
 14 13  1  0  0  0  0
 15 16  1  0  0  0  0
 17 14  1  0  0  0  0
 18 17  1  0  0  0  0
 18 20  1  0  0  0  0
 20 19  1  0  0  0  0
M  END
>  <MODEL>
3

>  <REMARK>
 VINA RESULT:      -4.9      3.845      7.628
  Name = shuffle_control_esm0_ligand
  12 active torsions:
  status: ('A' for Active; 'I' for Inactive)
    1  A    between atoms: C_1  and  C_2
    2  A    between atoms: C_2  and  C_3
    3  A    between atoms: C_3  and  C_4
    4  A    between atoms: C_4  and  C_5
    5  A    between atoms: C_5  and  C_6
    6  A    between atoms: C_5  and  O_8
    7  A    between atoms: C_6  and  C_7
    8  A    between atoms: O_8  and  C_9
    9  A    between atoms: C_9  and  C_11
   10  A    between atoms: C_12  and  C_13
   11  A    between atoms: C_16  and  O_17
   12  A    between atoms: O_17  and  C_18
                            x       y       z     vdW  Elec       q    Type
                         _______ _______ _______ _____ _____    ______ ____

>  <TORSDO>
F 9

$$$$
shuffle_control_esm0_ligand
 OpenBabel10092621113D

 20 20  0  0  1  0  0  0  0  0999 V2000
    0.9230    2.6600    0.0630 C   0  0  0  0  0  0  0  0  0  0  0  0
    0.2820    2.5380   -0.9320 O   0  0  0  0  0  0  0  0  0  0  0  0
    0.5130    2.1120    1.3910 C   0  0  0  0  0  3  0  0  0  0  0  0
   -0.5150    2.6180    2.0470 C   0  0  0  0  0  3  0  0  0  0  0  0
   -0.8960    2.2030    3.4290 C   0  0  0  0  0  0  0  0  0  0  0  0
    0.0010    2.4120    4.4460 C   0  0  0  0  0  3  0  0  0  0  0  0
   -0.2900    2.0200    5.7440 C   0  0  0  0  0  3  0  0  0  0  0  0
   -1.4990    1.4180    6.0390 C   0  0  0  0  0  0  0  0  0  0  0  0
   -2.4150    1.2130    5.0080 C   0  0  0  0  0  3  0  0  0  0  0  0
   -2.1170    1.6140    3.7020 C   0  0  0  0  0  3  0  0  0  0  0  0
   -1.8140    1.0100    7.2860 O   0  0  0  0  0  0  0  0  0  0  0  0
   -3.0560    0.3490    7.5170 C   0  0  0  0  0  1  0  0  0  0  0  0
    2.1020    3.3300    0.0740 O   0  0  0  0  0  0  0  0  0  0  0  0
    2.5810    4.0190    1.2250 C   0  0  2  0  0  3  0  0  0  0  0  0
    2.1600    5.4780    1.2470 C   0  0  0  0  0  2  0  0  0  0  0  0
    1.3420    5.9190    2.4260 C   0  0  0  0  0  1  0  0  0  0  0  0
    4.0730    3.9740    1.2010 C   0  0  0  0  0  2  0  0  0  0  0  0
    4.6910    3.2080    2.3210 C   0  0  0  0  0  2  0  0  0  0  0  0
    3.5420    1.1510    3.2960 C   0  0  0  0  0  1  0  0  0  0  0  0
    3.7670    2.6210    3.3420 C   0  0  0  0  0  2  0  0  0  0  0  0
  1 13  1  0  0  0  0
  1  3  1  0  0  0  0
  2  1  2  0  0  0  0
  3  4  2  0  0  0  0
  4  5  1  0  0  0  0
  5 10  2  0  0  0  0
  5  6  1  0  0  0  0
  6  7  2  0  0  0  0
  7  8  1  0  0  0  0
  8 11  1  0  0  0  0
  9  8  2  0  0  0  0
 10  9  1  0  0  0  0
 11 12  1  0  0  0  0
 13 14  1  0  0  0  0
 14 17  1  6  0  0  0
 14 15  1  0  0  0  0
 15 16  1  0  0  0  0
 17 18  1  0  0  0  0
 18 20  1  0  0  0  0
 19 20  1  0  0  0  0
M  END
>  <MODEL>
4

>  <REMARK>
 VINA RESULT:      -4.8      2.589      7.362
  Name = shuffle_control_esm0_ligand
  12 active torsions:
  status: ('A' for Active; 'I' for Inactive)
    1  A    between atoms: C_1  and  C_2
    2  A    between atoms: C_2  and  C_3
    3  A    between atoms: C_3  and  C_4
    4  A    between atoms: C_4  and  C_5
    5  A    between atoms: C_5  and  C_6
    6  A    between atoms: C_5  and  O_8
    7  A    between atoms: C_6  and  C_7
    8  A    between atoms: O_8  and  C_9
    9  A    between atoms: C_9  and  C_11
   10  A    between atoms: C_12  and  C_13
   11  A    between atoms: C_16  and  O_17
   12  A    between atoms: O_17  and  C_18
                            x       y       z     vdW  Elec       q    Type
                         _______ _______ _______ _____ _____    ______ ____

>  <TORSDO>
F 9

$$$$
shuffle_control_esm0_ligand
 OpenBabel10092621113D

 20 20  0  0  1  0  0  0  0  0999 V2000
   -0.0090    2.1520    4.8100 C   0  0  0  0  0  0  0  0  0  0  0  0
    0.3230    1.1840    5.4150 O   0  0  0  0  0  0  0  0  0  0  0  0
   -1.3290    2.2960    4.1250 C   0  0  0  0  0  3  0  0  0  0  0  0
   -1.7940    1.3400    3.3390 C   0  0  0  0  0  3  0  0  0  0  0  0
   -3.0400    1.4740    2.5280 C   0  0  0  0  0  0  0  0  0  0  0  0
   -4.1210    0.6960    2.8570 C   0  0  0  0  0  3  0  0  0  0  0  0
   -5.2950    0.7590    2.1200 C   0  0  0  0  0  3  0  0  0  0  0  0
   -5.3980    1.6190    1.0420 C   0  0  0  0  0  0  0  0  0  0  0  0
   -4.3030    2.4170    0.7130 C   0  0  0  0  0  3  0  0  0  0  0  0
   -3.1250    2.3510    1.4630 C   0  0  0  0  0  3  0  0  0  0  0  0
   -6.5170    1.7010    0.2920 O   0  0  0  0  0  0  0  0  0  0  0  0
   -7.0230    2.9820   -0.0770 C   0  0  0  0  0  1  0  0  0  0  0  0
    0.8070    3.2280    4.6810 O   0  0  0  0  0  0  0  0  0  0  0  0
    1.6030    3.4520    3.5210 C   0  0  2  0  0  3  0  0  0  0  0  0
    3.0420    3.0040    3.7070 C   0  0  0  0  0  2  0  0  0  0  0  0
    3.9870    3.3120    2.5820 C   0  0  0  0  0  1  0  0  0  0  0  0
    1.6130    4.9200    3.2460 C   0  0  0  0  0  2  0  0  0  0  0  0
    0.9640    5.3180    1.9650 C   0  0  0  0  0  2  0  0  0  0  0  0
   -0.2200    4.1570    0.0260 C   0  0  0  0  0  1  0  0  0  0  0  0
   -0.1730    4.4710    1.4800 C   0  0  0  0  0  2  0  0  0  0  0  0
  1  2  2  0  0  0  0
  3  1  1  0  0  0  0
  4  3  2  0  0  0  0
  5  6  1  0  0  0  0
  5  4  1  0  0  0  0
  7  6  2  0  0  0  0
  8  7  1  0  0  0  0
  9  8  2  0  0  0  0
  9 10  1  0  0  0  0
 10  5  2  0  0  0  0
 11  8  1  0  0  0  0
 12 11  1  0  0  0  0
 13  1  1  0  0  0  0
 14 17  1  1  0  0  0
 14 15  1  0  0  0  0
 14 13  1  0  0  0  0
 16 15  1  0  0  0  0
 18 17  1  0  0  0  0
 19 20  1  0  0  0  0
 20 18  1  0  0  0  0
M  END
>  <MODEL>
5

>  <REMARK>
 VINA RESULT:      -4.8      3.189      8.177
  Name = shuffle_control_esm0_ligand
  12 active torsions:
  status: ('A' for Active; 'I' for Inactive)
    1  A    between atoms: C_1  and  C_2
    2  A    between atoms: C_2  and  C_3
    3  A    between atoms: C_3  and  C_4
    4  A    between atoms: C_4  and  C_5
    5  A    between atoms: C_5  and  C_6
    6  A    between atoms: C_5  and  O_8
    7  A    between atoms: C_6  and  C_7
    8  A    between atoms: O_8  and  C_9
    9  A    between atoms: C_9  and  C_11
   10  A    between atoms: C_12  and  C_13
   11  A    between atoms: C_16  and  O_17
   12  A    between atoms: O_17  and  C_18
                            x       y       z     vdW  Elec       q    Type
                         _______ _______ _______ _____ _____    ______ ____

>  <TORSDO>
F 9

$$$$
shuffle_control_esm0_ligand
 OpenBabel10092621113D

 20 20  0  0  1  0  0  0  0  0999 V2000
   -0.0210    2.1150    4.5680 C   0  0  0  0  0  0  0  0  0  0  0  0
    0.4960    1.0850    4.8670 O   0  0  0  0  0  0  0  0  0  0  0  0
   -1.3700    2.2170    3.9330 C   0  0  0  0  0  3  0  0  0  0  0  0
   -1.5970    1.7060    2.7370 C   0  0  0  0  0  3  0  0  0  0  0  0
   -2.8800    1.8850    1.9950 C   0  0  0  0  0  0  0  0  0  0  0  0
   -2.9140    2.7730    0.9500 C   0  0  0  0  0  3  0  0  0  0  0  0
   -4.0870    2.9990    0.2440 C   0  0  0  0  0  3  0  0  0  0  0  0
   -5.2450    2.3220    0.5780 C   0  0  0  0  0  0  0  0  0  0  0  0
   -5.2100    1.4120    1.6340 C   0  0  0  0  0  3  0  0  0  0  0  0
   -4.0230    1.1860    2.3380 C   0  0  0  0  0  3  0  0  0  0  0  0
   -6.4090    2.5230   -0.0750 O   0  0  0  0  0  0  0  0  0  0  0  0
   -6.3880    3.0220   -1.4110 C   0  0  0  0  0  1  0  0  0  0  0  0
    0.5900    3.3080    4.7780 O   0  0  0  0  0  0  0  0  0  0  0  0
    1.5820    3.8260    3.8960 C   0  0  2  0  0  3  0  0  0  0  0  0
    0.9840    4.4220    2.6340 C   0  0  0  0  0  2  0  0  0  0  0  0
    1.3270    5.8550    2.3460 C   0  0  0  0  0  1  0  0  0  0  0  0
    2.4730    2.6980    3.4920 C   0  0  0  0  0  2  0  0  0  0  0  0
    3.9300    2.9710    3.6410 C   0  0  0  0  0  2  0  0  0  0  0  0
    5.1220    2.0510    1.5820 C   0  0  0  0  0  1  0  0  0  0  0  0
    4.7110    3.2320    2.3890 C   0  0  0  0  0  2  0  0  0  0  0  0
  1 13  1  0  0  0  0
  1  2  2  0  0  0  0
  3  1  1  0  0  0  0
  4  3  2  0  0  0  0
  5 10  1  0  0  0  0
  5  4  1  0  0  0  0
  6  5  2  0  0  0  0
  7  8  2  0  0  0  0
  7  6  1  0  0  0  0
  8  9  1  0  0  0  0
  9 10  2  0  0  0  0
 11  8  1  0  0  0  0
 12 11  1  0  0  0  0
 14 15  1  6  0  0  0
 14 13  1  0  0  0  0
 16 15  1  0  0  0  0
 17 18  1  0  0  0  0
 17 14  1  0  0  0  0
 19 20  1  0  0  0  0
 20 18  1  0  0  0  0
M  END
>  <MODEL>
6

>  <REMARK>
 VINA RESULT:      -4.8      3.144      8.079
  Name = shuffle_control_esm0_ligand
  12 active torsions:
  status: ('A' for Active; 'I' for Inactive)
    1  A    between atoms: C_1  and  C_2
    2  A    between atoms: C_2  and  C_3
    3  A    between atoms: C_3  and  C_4
    4  A    between atoms: C_4  and  C_5
    5  A    between atoms: C_5  and  C_6
    6  A    between atoms: C_5  and  O_8
    7  A    between atoms: C_6  and  C_7
    8  A    between atoms: O_8  and  C_9
    9  A    between atoms: C_9  and  C_11
   10  A    between atoms: C_12  and  C_13
   11  A    between atoms: C_16  and  O_17
   12  A    between atoms: O_17  and  C_18
                            x       y       z     vdW  Elec       q    Type
                         _______ _______ _______ _____ _____    ______ ____

>  <TORSDO>
F 9

$$$$
shuffle_control_esm0_ligand
 OpenBabel10092621113D

 20 20  0  0  1  0  0  0  0  0999 V2000
    0.1890    2.7720    4.0260 C   0  0  0  0  0  0  0  0  0  0  0  0
    0.4690    3.2230    5.0910 O   0  0  0  0  0  0  0  0  0  0  0  0
   -1.1400    2.1730    3.6980 C   0  0  0  0  0  3  0  0  0  0  0  0
   -1.7040    2.3730    2.5200 C   0  0  0  0  0  3  0  0  0  0  0  0
   -3.0810    1.9110    2.1760 C   0  0  0  0  0  0  0  0  0  0  0  0
   -3.6250    0.8800    2.9000 C   0  0  0  0  0  3  0  0  0  0  0  0
   -4.8900    0.3920    2.6050 C   0  0  0  0  0  3  0  0  0  0  0  0
   -5.6310    0.9460    1.5780 C   0  0  0  0  0  0  0  0  0  0  0  0
   -5.0830    2.0000    0.8480 C   0  0  0  0  0  3  0  0  0  0  0  0
   -3.8090    2.4890    1.1530 C   0  0  0  0  0  3  0  0  0  0  0  0
   -6.8590    0.4920    1.2520 O   0  0  0  0  0  0  0  0  0  0  0  0
   -7.5620   -0.3500    2.1630 C   0  0  0  0  0  1  0  0  0  0  0  0
    1.0770    2.7570    3.0010 O   0  0  0  0  0  0  0  0  0  0  0  0
    2.2660    3.5420    3.0050 C   0  0  2  0  0  3  0  0  0  0  0  0
    2.2280    4.6600    1.9800 C   0  0  0  0  0  2  0  0  0  0  0  0
    1.3040    5.8060    2.2760 C   0  0  0  0  0  1  0  0  0  0  0  0
    3.4100    2.6450    2.6620 C   0  0  0  0  0  2  0  0  0  0  0  0
    4.7200    3.3380    2.5060 C   0  0  0  0  0  2  0  0  0  0  0  0
    6.2040    4.3000    0.6680 C   0  0  0  0  0  1  0  0  0  0  0  0
    5.4510    3.1380    1.2140 C   0  0  0  0  0  2  0  0  0  0  0  0
  1  2  2  0  0  0  0
  3  1  1  0  0  0  0
  4  3  2  0  0  0  0
  5  4  1  0  0  0  0
  5  6  1  0  0  0  0
  7  6  2  0  0  0  0
  8  7  1  0  0  0  0
  9 10  1  0  0  0  0
  9  8  2  0  0  0  0
 10  5  2  0  0  0  0
 11  8  1  0  0  0  0
 11 12  1  0  0  0  0
 13 14  1  0  0  0  0
 13  1  1  0  0  0  0
 14 15  1  6  0  0  0
 15 16  1  0  0  0  0
 17 14  1  0  0  0  0
 18 17  1  0  0  0  0
 19 20  1  0  0  0  0
 20 18  1  0  0  0  0
M  END
>  <MODEL>
7

>  <REMARK>
 VINA RESULT:      -4.8      2.993      8.648
  Name = shuffle_control_esm0_ligand
  12 active torsions:
  status: ('A' for Active; 'I' for Inactive)
    1  A    between atoms: C_1  and  C_2
    2  A    between atoms: C_2  and  C_3
    3  A    between atoms: C_3  and  C_4
    4  A    between atoms: C_4  and  C_5
    5  A    between atoms: C_5  and  C_6
    6  A    between atoms: C_5  and  O_8
    7  A    between atoms: C_6  and  C_7
    8  A    between atoms: O_8  and  C_9
    9  A    between atoms: C_9  and  C_11
   10  A    between atoms: C_12  and  C_13
   11  A    between atoms: C_16  and  O_17
   12  A    between atoms: O_17  and  C_18
                            x       y       z     vdW  Elec       q    Type
                         _______ _______ _______ _____ _____    ______ ____

>  <TORSDO>
F 9

$$$$
shuffle_control_esm0_ligand
 OpenBabel10092621113D

 20 20  0  0  1  0  0  0  0  0999 V2000
    0.3250    3.8060    1.9350 C   0  0  0  0  0  0  0  0  0  0  0  0
    1.1110    3.6170    1.0610 O   0  0  0  0  0  0  0  0  0  0  0  0
   -1.1300    3.4840    1.8310 C   0  0  0  0  0  3  0  0  0  0  0  0
   -1.5890    2.2960    2.1840 C   0  0  0  0  0  3  0  0  0  0  0  0
   -3.0060    1.8690    1.9850 C   0  0  0  0  0  0  0  0  0  0  0  0
   -3.4890    0.8330    2.7440 C   0  0  0  0  0  3  0  0  0  0  0  0
   -4.7890    0.3760    2.5820 C   0  0  0  0  0  3  0  0  0  0  0  0
   -5.6270    0.9680    1.6540 C   0  0  0  0  0  0  0  0  0  0  0  0
   -5.1390    2.0270    0.8890 C   0  0  0  0  0  3  0  0  0  0  0  0
   -3.8300    2.4840    1.0610 C   0  0  0  0  0  3  0  0  0  0  0  0
   -6.8930    0.5450    1.4570 O   0  0  0  0  0  0  0  0  0  0  0  0
   -7.4840   -0.3620    2.3850 C   0  0  0  0  0  1  0  0  0  0  0  0
    0.6950    4.3510    3.1210 O   0  0  0  0  0  0  0  0  0  0  0  0
    1.4470    3.6310    4.0930 C   0  0  2  0  0  3  0  0  0  0  0  0
    2.3750    2.6050    3.4690 C   0  0  0  0  0  2  0  0  0  0  0  0
    3.8450    2.9020    3.5440 C   0  0  0  0  0  1  0  0  0  0  0  0
    0.4850    2.9030    4.9730 C   0  0  0  0  0  2  0  0  0  0  0  0
    0.4980    1.4210    4.8180 C   0  0  0  0  0  2  0  0  0  0  0  0
   -1.7990    1.3080    5.9220 C   0  0  0  0  0  1  0  0  0  0  0  0
   -0.5060    0.6410    5.6100 C   0  0  0  0  0  2  0  0  0  0  0  0
  1 13  1  0  0  0  0
  2  1  2  0  0  0  0
  3  1  1  0  0  0  0
  3  4  2  0  0  0  0
  5  4  1  0  0  0  0
  5  6  1  0  0  0  0
  7  6  2  0  0  0  0
  8  7  1  0  0  0  0
  9 10  1  0  0  0  0
  9  8  2  0  0  0  0
 10  5  2  0  0  0  0
 11  8  1  0  0  0  0
 11 12  1  0  0  0  0
 13 14  1  0  0  0  0
 14 15  1  6  0  0  0
 14 17  1  0  0  0  0
 15 16  1  0  0  0  0
 18 17  1  0  0  0  0
 18 20  1  0  0  0  0
 20 19  1  0  0  0  0
M  END
>  <MODEL>
8

>  <REMARK>
 VINA RESULT:      -4.8      3.036      7.714
  Name = shuffle_control_esm0_ligand
  12 active torsions:
  status: ('A' for Active; 'I' for Inactive)
    1  A    between atoms: C_1  and  C_2
    2  A    between atoms: C_2  and  C_3
    3  A    between atoms: C_3  and  C_4
    4  A    between atoms: C_4  and  C_5
    5  A    between atoms: C_5  and  C_6
    6  A    between atoms: C_5  and  O_8
    7  A    between atoms: C_6  and  C_7
    8  A    between atoms: O_8  and  C_9
    9  A    between atoms: C_9  and  C_11
   10  A    between atoms: C_12  and  C_13
   11  A    between atoms: C_16  and  O_17
   12  A    between atoms: O_17  and  C_18
                            x       y       z     vdW  Elec       q    Type
                         _______ _______ _______ _____ _____    ______ ____

>  <TORSDO>
F 9

$$$$
shuffle_control_esm0_ligand
 OpenBabel10092621113D

 20 20  0  0  1  0  0  0  0  0999 V2000
    1.3290    3.1670    4.2160 C   0  0  0  0  0  0  0  0  0  0  0  0
    1.0700    4.3270    4.2500 O   0  0  0  0  0  0  0  0  0  0  0  0
    2.3740    2.5710    3.3300 C   0  0  0  0  0  3  0  0  0  0  0  0
    3.5080    3.2070    3.0940 C   0  0  0  0  0  3  0  0  0  0  0  0
    4.5340    2.7290    2.1210 C   0  0  0  0  0  0  0  0  0  0  0  0
    5.1900    3.6570    1.3530 C   0  0  0  0  0  3  0  0  0  0  0  0
    6.1320    3.2660    0.4130 C   0  0  0  0  0  3  0  0  0  0  0  0
    6.4350    1.9280    0.2410 C   0  0  0  0  0  0  0  0  0  0  0  0
    5.7750    0.9840    1.0280 C   0  0  0  0  0  3  0  0  0  0  0  0
    4.8300    1.3860    1.9760 C   0  0  0  0  0  3  0  0  0  0  0  0
    7.3360    1.5060   -0.6710 O   0  0  0  0  0  0  0  0  0  0  0  0
    7.6500    0.1180   -0.7580 C   0  0  0  0  0  1  0  0  0  0  0  0
    0.6750    2.2660    4.9920 O   0  0  0  0  0  0  0  0  0  0  0  0
   -0.7440    2.1440    4.9930 C   0  0  2  0  0  3  0  0  0  0  0  0
   -1.2530    1.2820    6.1350 C   0  0  0  0  0  2  0  0  0  0  0  0
   -2.7440    1.1640    6.2690 C   0  0  0  0  0  1  0  0  0  0  0  0
   -1.1510    1.4920    3.7120 C   0  0  0  0  0  2  0  0  0  0  0  0
   -1.9000    2.3760    2.7750 C   0  0  0  0  0  2  0  0  0  0  0  0
   -0.7830    4.0690    1.2280 C   0  0  0  0  0  1  0  0  0  0  0  0
   -1.2580    2.6770    1.4550 C   0  0  0  0  0  2  0  0  0  0  0  0
  1  2  2  0  0  0  0
  1 13  1  0  0  0  0
  3  1  1  0  0  0  0
  4  3  2  0  0  0  0
  5  4  1  0  0  0  0
  6  5  2  0  0  0  0
  7  6  1  0  0  0  0
  8  7  2  0  0  0  0
  8  9  1  0  0  0  0
  9 10  2  0  0  0  0
 10  5  1  0  0  0  0
 11  8  1  0  0  0  0
 12 11  1  0  0  0  0
 13 14  1  0  0  0  0
 14 17  1  6  0  0  0
 14 15  1  0  0  0  0
 15 16  1  0  0  0  0
 18 17  1  0  0  0  0
 19 20  1  0  0  0  0
 20 18  1  0  0  0  0
M  END
>  <MODEL>
9

>  <REMARK>
 VINA RESULT:      -4.8      1.122      2.540
  Name = shuffle_control_esm0_ligand
  12 active torsions:
  status: ('A' for Active; 'I' for Inactive)
    1  A    between atoms: C_1  and  C_2
    2  A    between atoms: C_2  and  C_3
    3  A    between atoms: C_3  and  C_4
    4  A    between atoms: C_4  and  C_5
    5  A    between atoms: C_5  and  C_6
    6  A    between atoms: C_5  and  O_8
    7  A    between atoms: C_6  and  C_7
    8  A    between atoms: O_8  and  C_9
    9  A    between atoms: C_9  and  C_11
   10  A    between atoms: C_12  and  C_13
   11  A    between atoms: C_16  and  O_17
   12  A    between atoms: O_17  and  C_18
                            x       y       z     vdW  Elec       q    Type
                         _______ _______ _______ _____ _____    ______ ____

>  <TORSDO>
F 9

$$$$
