ox2_orig_f8_ligand
     RDKit          3D

 29 30  0  0  0  0  0  0  0  0999 V2000
   -3.3649   -1.5059    0.1811 C   0  0  0  0  0  0  0  0  0  0  0  0
   -3.1324   -2.5376   -0.7330 O   0  0  0  0  0  0  0  0  0  0  0  0
   -2.2804   -2.3396   -1.7745 C   0  0  0  0  0  0  0  0  0  0  0  0
   -2.0811   -3.4003   -2.6335 C   0  0  0  0  0  0  0  0  0  0  0  0
   -1.2356   -3.2741   -3.7115 C   0  0  0  0  0  0  0  0  0  0  0  0
   -0.5939   -2.0820   -3.9453 C   0  0  0  0  0  0  0  0  0  0  0  0
    0.3038   -1.9748   -5.1002 C   0  0  0  0  0  0  0  0  0  0  0  0
    1.2799   -1.4814   -4.9166 O   0  0  0  0  0  0  0  0  0  0  0  0
    0.1684   -2.5524   -6.4139 C   0  0  0  0  0  0  0  0  0  0  0  0
   -1.0608   -2.6389   -7.0061 C   0  0  0  0  0  0  0  0  0  0  0  0
   -1.1899   -3.1809   -8.2656 C   0  0  0  0  0  0  0  0  0  0  0  0
   -0.0865   -3.6558   -8.9339 C   0  0  0  0  0  0  0  0  0  0  0  0
    1.1578   -3.5516   -8.3497 C   0  0  0  0  0  0  0  0  0  0  0  0
    1.2962   -2.9886   -7.0896 C   0  0  0  0  0  0  0  0  0  0  0  0
   -0.7759   -1.0101   -3.0742 C   0  0  0  0  0  0  0  0  0  0  0  0
   -0.1259    0.1454   -3.2871 O   0  0  0  0  0  0  0  0  0  0  0  0
   -1.6217   -1.1500   -1.9972 C   0  0  0  0  0  0  0  0  0  0  0  0
   -3.6165   -1.9351    1.1622 H   0  0  0  0  0  0  0  0  0  0  0  0
   -2.4604   -0.8866    0.2728 H   0  0  0  0  0  0  0  0  0  0  0  0
   -4.2007   -0.8842   -0.1724 H   0  0  0  0  0  0  0  0  0  0  0  0
   -2.6015   -4.3530   -2.4555 H   0  0  0  0  0  0  0  0  0  0  0  0
   -1.0735   -4.1276   -4.3862 H   0  0  0  0  0  0  0  0  0  0  0  0
   -1.9513   -2.2736   -6.4739 H   0  0  0  0  0  0  0  0  0  0  0  0
   -2.1813   -3.2341   -8.7393 H   0  0  0  0  0  0  0  0  0  0  0  0
   -0.1956   -4.1154   -9.9274 H   0  0  0  0  0  0  0  0  0  0  0  0
    2.0460   -3.9171   -8.8857 H   0  0  0  0  0  0  0  0  0  0  0  0
    2.2913   -2.8894   -6.6316 H   0  0  0  0  0  0  0  0  0  0  0  0
   -0.2550    0.9072   -2.6683 H   0  0  0  0  0  0  0  0  0  0  0  0
   -1.7730   -0.3054   -1.3089 H   0  0  0  0  0  0  0  0  0  0  0  0
  2  1  1  0
  3  2  1  0
  4  3  1  0
  5  4  2  0
  6  5  1  0
  7  6  1  0
  8  7  2  0
  9  7  1  0
 10  9  2  0
 11 10  1  0
 12 11  2  0
 13 12  1  0
 14 13  2  0
 14  9  1  0
 15  6  2  0
 16 15  1  0
 17 15  1  0
 17  3  2  0
  1 18  1  0
  1 19  1  0
  1 20  1  0
  4 21  1  0
  5 22  1  0
 10 23  1  0
 11 24  1  0
 12 25  1  0
 13 26  1  0
 14 27  1  0
 16 28  1  0
 17 29  1  0
M  END
$$$$
