ox2_orig_f8_ligand
 OpenBabel10092621203D

 18 19  0  0  0  0  0  0  0  0999 V2000
    8.3680   -6.7670   -2.1660 C   0  0  0  0  0  0  0  0  0  0  0  0
    8.3670   -7.3850   -3.3990 C   0  0  0  0  0  3  0  0  0  0  0  0
    7.1830   -7.7620   -3.9880 C   0  0  0  0  0  3  0  0  0  0  0  0
    5.9920   -7.5360   -3.3420 C   0  0  0  0  0  0  0  0  0  0  0  0
    5.9810   -6.8990   -2.1030 C   0  0  0  0  0  0  0  0  0  0  0  0
    7.1730   -6.5230   -1.5250 C   0  0  0  0  0  3  0  0  0  0  0  0
    9.6800   -6.0840   -0.2930 C   0  0  0  0  0  1  0  0  0  0  0  0
    9.5770   -6.4250   -1.6450 O   0  0  0  0  0  0  0  0  0  0  0  0
    4.7430   -7.9460   -3.9930 C   0  0  0  0  0  0  0  0  0  0  0  0
    4.2540   -8.8550   -3.5870 O   0  0  0  0  0  0  0  0  0  0  0  0
    3.9710   -7.2560   -4.9960 C   0  0  0  0  0  0  0  0  0  0  0  0
    3.6100   -7.8940   -6.1500 C   0  0  0  0  0  3  0  0  0  0  0  0
    2.8640   -7.2370   -7.1040 C   0  0  0  0  0  3  0  0  0  0  0  0
    2.4890   -5.9280   -6.9130 C   0  0  0  0  0  3  0  0  0  0  0  0
    2.8340   -5.2870   -5.7430 C   0  0  0  0  0  3  0  0  0  0  0  0
    3.5680   -5.9490   -4.7700 C   0  0  0  0  0  3  0  0  0  0  0  0
    4.8150   -6.6530   -1.4850 O   0  0  0  0  0  0  0  0  0  0  0  0
    4.7790   -6.6010   -0.4970 H   0  0  0  0  0  0  0  0  0  0  0  0
  1  8  1  0  0  0  0
  1  6  1  0  0  0  0
  2  1  2  0  0  0  0
  3  2  1  0  0  0  0
  3  4  2  0  0  0  0
  4  5  1  0  0  0  0
  5  6  2  0  0  0  0
  5 17  1  0  0  0  0
  8  7  1  0  0  0  0
  9 10  2  0  0  0  0
  9  4  1  0  0  0  0
 11 16  1  0  0  0  0
 11  9  1  0  0  0  0
 12 11  2  0  0  0  0
 13 14  2  0  0  0  0
 13 12  1  0  0  0  0
 14 15  1  0  0  0  0
 15 16  2  0  0  0  0
 17 18  1  0  0  0  0
M  END
>  <MODEL>
1

>  <REMARK>
 VINA RESULT:      -5.0      0.000      0.000
  Name = ox2_orig_f8_ligand
  5 active torsions:
  status: ('A' for Active; 'I' for Inactive)
    1  A    between atoms: C_1  and  O_2
    2  A    between atoms: O_2  and  C_3
    3  A    between atoms: C_6  and  C_7
    4  A    between atoms: C_7  and  C_9
    5  A    between atoms: C_15  and  O_16
                            x       y       z     vdW  Elec       q    Type
                         _______ _______ _______ _____ _____    ______ ____

>  <TORSDO>
F 4

$$$$
ox2_orig_f8_ligand
 OpenBabel10092621203D

 18 19  0  0  0  0  0  0  0  0999 V2000
    6.4990   -8.5560   -1.5100 C   0  0  0  0  0  0  0  0  0  0  0  0
    6.9910   -7.7630   -2.5260 C   0  0  0  0  0  3  0  0  0  0  0  0
    6.3360   -7.6920   -3.7340 C   0  0  0  0  0  3  0  0  0  0  0  0
    5.1920   -8.4240   -3.9380 C   0  0  0  0  0  0  0  0  0  0  0  0
    4.6780   -9.2160   -2.9140 C   0  0  0  0  0  0  0  0  0  0  0  0
    5.3410   -9.2760   -1.7090 C   0  0  0  0  0  3  0  0  0  0  0  0
    6.9830   -7.5900    0.6180 C   0  0  0  0  0  1  0  0  0  0  0  0
    7.2020   -8.5780   -0.3460 O   0  0  0  0  0  0  0  0  0  0  0  0
    4.5120   -8.3280   -5.2340 C   0  0  0  0  0  0  0  0  0  0  0  0
    4.5140   -9.2460   -5.8580 O   0  0  0  0  0  0  0  0  0  0  0  0
    3.7060   -7.2550   -5.7610 C   0  0  0  0  0  0  0  0  0  0  0  0
    3.0920   -7.3850   -6.9760 C   0  0  0  0  0  3  0  0  0  0  0  0
    2.3140   -6.3640   -7.4750 C   0  0  0  0  0  3  0  0  0  0  0  0
    2.1600   -5.1970   -6.7640 C   0  0  0  0  0  3  0  0  0  0  0  0
    2.7590   -5.0690   -5.5300 C   0  0  0  0  0  3  0  0  0  0  0  0
    3.5280   -6.1020   -5.0140 C   0  0  0  0  0  3  0  0  0  0  0  0
    3.5450   -9.9090   -3.1050 O   0  0  0  0  0  0  0  0  0  0  0  0
    3.4190  -10.7850   -2.6620 H   0  0  0  0  0  0  0  0  0  0  0  0
  1  8  1  0  0  0  0
  2  1  2  0  0  0  0
  3  2  1  0  0  0  0
  4  3  2  0  0  0  0
  4  5  1  0  0  0  0
  5  6  2  0  0  0  0
  6  1  1  0  0  0  0
  8  7  1  0  0  0  0
  9  4  1  0  0  0  0
 10  9  2  0  0  0  0
 11  9  1  0  0  0  0
 11 16  1  0  0  0  0
 12 11  2  0  0  0  0
 13 12  1  0  0  0  0
 13 14  2  0  0  0  0
 14 15  1  0  0  0  0
 15 16  2  0  0  0  0
 17  5  1  0  0  0  0
 17 18  1  0  0  0  0
M  END
>  <MODEL>
2

>  <REMARK>
 VINA RESULT:      -4.7      1.694      2.161
  Name = ox2_orig_f8_ligand
  5 active torsions:
  status: ('A' for Active; 'I' for Inactive)
    1  A    between atoms: C_1  and  O_2
    2  A    between atoms: O_2  and  C_3
    3  A    between atoms: C_6  and  C_7
    4  A    between atoms: C_7  and  C_9
    5  A    between atoms: C_15  and  O_16
                            x       y       z     vdW  Elec       q    Type
                         _______ _______ _______ _____ _____    ______ ____

>  <TORSDO>
F 4

$$$$
ox2_orig_f8_ligand
 OpenBabel10092621203D

 18 19  0  0  0  0  0  0  0  0999 V2000
    2.4240   -5.5920   -6.7760 C   0  0  0  0  0  0  0  0  0  0  0  0
    2.8200   -5.0520   -5.5700 C   0  0  0  0  0  3  0  0  0  0  0  0
    3.5750   -5.7920   -4.6890 C   0  0  0  0  0  3  0  0  0  0  0  0
    3.9270   -7.0820   -5.0040 C   0  0  0  0  0  0  0  0  0  0  0  0
    3.5450   -7.6320   -6.2250 C   0  0  0  0  0  0  0  0  0  0  0  0
    2.7930   -6.8790   -7.0990 C   0  0  0  0  0  3  0  0  0  0  0  0
    0.2820   -4.8510   -7.5220 C   0  0  0  0  0  1  0  0  0  0  0  0
    1.6770   -4.8020   -7.5930 O   0  0  0  0  0  0  0  0  0  0  0  0
    4.7350   -7.8490   -4.0480 C   0  0  0  0  0  0  0  0  0  0  0  0
    4.3760   -8.8720   -3.8150 O   0  0  0  0  0  0  0  0  0  0  0  0
    6.0160   -7.5230   -3.4740 C   0  0  0  0  0  0  0  0  0  0  0  0
    7.1700   -7.9150   -4.0940 C   0  0  0  0  0  3  0  0  0  0  0  0
    8.3950   -7.5950   -3.5520 C   0  0  0  0  0  3  0  0  0  0  0  0
    8.4700   -6.8940   -2.3710 C   0  0  0  0  0  3  0  0  0  0  0  0
    7.3100   -6.4800   -1.7530 C   0  0  0  0  0  3  0  0  0  0  0  0
    6.0750   -6.7810   -2.3050 C   0  0  0  0  0  3  0  0  0  0  0  0
    3.9140   -8.8820   -6.5430 O   0  0  0  0  0  0  0  0  0  0  0  0
    3.5640   -9.6490   -6.0230 H   0  0  0  0  0  0  0  0  0  0  0  0
  1  2  1  0  0  0  0
  2  3  2  0  0  0  0
  4  3  1  0  0  0  0
  4  9  1  0  0  0  0
  5  4  2  0  0  0  0
  6  1  2  0  0  0  0
  6  5  1  0  0  0  0
  8  7  1  0  0  0  0
  8  1  1  0  0  0  0
  9 10  2  0  0  0  0
  9 11  1  0  0  0  0
 11 16  1  0  0  0  0
 12 13  1  0  0  0  0
 12 11  2  0  0  0  0
 13 14  2  0  0  0  0
 14 15  1  0  0  0  0
 16 15  2  0  0  0  0
 17  5  1  0  0  0  0
 17 18  1  0  0  0  0
M  END
>  <MODEL>
3

>  <REMARK>
 VINA RESULT:      -4.7      1.809      6.164
  Name = ox2_orig_f8_ligand
  5 active torsions:
  status: ('A' for Active; 'I' for Inactive)
    1  A    between atoms: C_1  and  O_2
    2  A    between atoms: O_2  and  C_3
    3  A    between atoms: C_6  and  C_7
    4  A    between atoms: C_7  and  C_9
    5  A    between atoms: C_15  and  O_16
                            x       y       z     vdW  Elec       q    Type
                         _______ _______ _______ _____ _____    ______ ____

>  <TORSDO>
F 4

$$$$
ox2_orig_f8_ligand
 OpenBabel10092621203D

 18 19  0  0  0  0  0  0  0  0999 V2000
   -1.1650   -4.3840   -8.1200 C   0  0  0  0  0  0  0  0  0  0  0  0
   -1.1370   -5.4090   -7.1980 C   0  0  0  0  0  3  0  0  0  0  0  0
    0.0400   -5.7560   -6.5750 C   0  0  0  0  0  3  0  0  0  0  0  0
    1.2000   -5.0870   -6.8810 C   0  0  0  0  0  0  0  0  0  0  0  0
    1.1810   -4.0400   -7.8000 C   0  0  0  0  0  0  0  0  0  0  0  0
   -0.0040   -3.7010   -8.4130 C   0  0  0  0  0  3  0  0  0  0  0  0
   -2.4790   -3.0070   -9.5590 C   0  0  0  0  0  1  0  0  0  0  0  0
   -2.3630   -4.1010   -8.6970 O   0  0  0  0  0  0  0  0  0  0  0  0
    2.4410   -5.4740   -6.2010 C   0  0  0  0  0  0  0  0  0  0  0  0
    2.8640   -4.7310   -5.4950 O   0  0  0  0  0  0  0  0  0  0  0  0
    3.1190   -6.7460   -6.2010 C   0  0  0  0  0  0  0  0  0  0  0  0
    3.0000   -7.5920   -7.2680 C   0  0  0  0  0  3  0  0  0  0  0  0
    3.6560   -8.8040   -7.2730 C   0  0  0  0  0  3  0  0  0  0  0  0
    4.4250   -9.1810   -6.1970 C   0  0  0  0  0  3  0  0  0  0  0  0
    4.5650   -8.3230   -5.1280 C   0  0  0  0  0  3  0  0  0  0  0  0
    3.9230   -7.0940   -5.1270 C   0  0  0  0  0  3  0  0  0  0  0  0
    2.3100   -3.3690   -8.0760 O   0  0  0  0  0  0  0  0  0  0  0  0
    2.5750   -2.5950   -7.5190 H   0  0  0  0  0  0  0  0  0  0  0  0
  1  2  1  0  0  0  0
  2  3  2  0  0  0  0
  4  3  1  0  0  0  0
  4  9  1  0  0  0  0
  5  4  2  0  0  0  0
  6  1  2  0  0  0  0
  6  5  1  0  0  0  0
  7  8  1  0  0  0  0
  8  1  1  0  0  0  0
  9 11  1  0  0  0  0
  9 10  2  0  0  0  0
 11 16  1  0  0  0  0
 12 11  2  0  0  0  0
 13 12  1  0  0  0  0
 13 14  2  0  0  0  0
 14 15  1  0  0  0  0
 15 16  2  0  0  0  0
 17  5  1  0  0  0  0
 17 18  1  0  0  0  0
M  END
>  <MODEL>
4

>  <REMARK>
 VINA RESULT:      -4.7      4.027      8.011
  Name = ox2_orig_f8_ligand
  5 active torsions:
  status: ('A' for Active; 'I' for Inactive)
    1  A    between atoms: C_1  and  O_2
    2  A    between atoms: O_2  and  C_3
    3  A    between atoms: C_6  and  C_7
    4  A    between atoms: C_7  and  C_9
    5  A    between atoms: C_15  and  O_16
                            x       y       z     vdW  Elec       q    Type
                         _______ _______ _______ _____ _____    ______ ____

>  <TORSDO>
F 4

$$$$
ox2_orig_f8_ligand
 OpenBabel10092621203D

 18 19  0  0  0  0  0  0  0  0999 V2000
   -0.4630   -4.1380   -9.0380 C   0  0  0  0  0  0  0  0  0  0  0  0
    0.8790   -3.9020   -9.2510 C   0  0  0  0  0  3  0  0  0  0  0  0
    1.8150   -4.3280   -8.3370 C   0  0  0  0  0  3  0  0  0  0  0  0
    1.4140   -4.9810   -7.1980 C   0  0  0  0  0  0  0  0  0  0  0  0
    0.0620   -5.2380   -6.9800 C   0  0  0  0  0  0  0  0  0  0  0  0
   -0.8650   -4.8100   -7.9040 C   0  0  0  0  0  3  0  0  0  0  0  0
   -2.2000   -2.6320   -9.6810 C   0  0  0  0  0  1  0  0  0  0  0  0
   -1.3300   -3.6850   -9.9830 O   0  0  0  0  0  0  0  0  0  0  0  0
    2.4330   -5.4270   -6.2410 C   0  0  0  0  0  0  0  0  0  0  0  0
    2.6200   -4.7580   -5.3770 O   0  0  0  0  0  0  0  0  0  0  0  0
    3.1290   -6.6880   -6.1760 C   0  0  0  0  0  0  0  0  0  0  0  0
    3.9060   -6.9930   -5.0930 C   0  0  0  0  0  3  0  0  0  0  0  0
    4.5630   -8.2020   -5.0260 C   0  0  0  0  0  3  0  0  0  0  0  0
    4.4590   -9.1070   -6.0560 C   0  0  0  0  0  3  0  0  0  0  0  0
    3.6610   -8.8130   -7.1410 C   0  0  0  0  0  3  0  0  0  0  0  0
    2.9810   -7.6060   -7.2040 C   0  0  0  0  0  3  0  0  0  0  0  0
   -0.3260   -5.9020   -5.8800 O   0  0  0  0  0  0  0  0  0  0  0  0
   -1.0930   -5.5720   -5.3470 H   0  0  0  0  0  0  0  0  0  0  0  0
  1  6  1  0  0  0  0
  2  1  2  0  0  0  0
  2  3  1  0  0  0  0
  3  4  2  0  0  0  0
  4  5  1  0  0  0  0
  4  9  1  0  0  0  0
  5 17  1  0  0  0  0
  6  5  2  0  0  0  0
  8  7  1  0  0  0  0
  8  1  1  0  0  0  0
  9 11  1  0  0  0  0
  9 10  2  0  0  0  0
 11 12  1  0  0  0  0
 12 13  2  0  0  0  0
 14 13  1  0  0  0  0
 15 14  2  0  0  0  0
 16 15  1  0  0  0  0
 16 11  2  0  0  0  0
 17 18  1  0  0  0  0
M  END
>  <MODEL>
5

>  <REMARK>
 VINA RESULT:      -4.6      3.910      7.972
  Name = ox2_orig_f8_ligand
  5 active torsions:
  status: ('A' for Active; 'I' for Inactive)
    1  A    between atoms: C_1  and  O_2
    2  A    between atoms: O_2  and  C_3
    3  A    between atoms: C_6  and  C_7
    4  A    between atoms: C_7  and  C_9
    5  A    between atoms: C_15  and  O_16
                            x       y       z     vdW  Elec       q    Type
                         _______ _______ _______ _____ _____    ______ ____

>  <TORSDO>
F 4

$$$$
ox2_orig_f8_ligand
 OpenBabel10092621203D

 18 19  0  0  0  0  0  0  0  0999 V2000
    4.1180   -8.0050   -5.6440 C   0  0  0  0  0  0  0  0  0  0  0  0
    3.4830   -8.1720   -6.8570 C   0  0  0  0  0  3  0  0  0  0  0  0
    2.6450   -7.1970   -7.3450 C   0  0  0  0  0  3  0  0  0  0  0  0
    2.4250   -6.0540   -6.6160 C   0  0  0  0  0  0  0  0  0  0  0  0
    3.0720   -5.8680   -5.3970 C   0  0  0  0  0  0  0  0  0  0  0  0
    3.9110   -6.8510   -4.9210 C   0  0  0  0  0  3  0  0  0  0  0  0
    5.9070   -8.7620   -4.2580 C   0  0  0  0  0  1  0  0  0  0  0  0
    4.9290   -9.0130   -5.2250 O   0  0  0  0  0  0  0  0  0  0  0  0
    1.5280   -5.0280   -7.1610 C   0  0  0  0  0  0  0  0  0  0  0  0
    2.0170   -4.1420   -7.6140 O   0  0  0  0  0  0  0  0  0  0  0  0
    0.0970   -5.0680   -7.3290 C   0  0  0  0  0  0  0  0  0  0  0  0
   -0.6640   -5.9120   -6.5690 C   0  0  0  0  0  3  0  0  0  0  0  0
   -2.0330   -5.9430   -6.7230 C   0  0  0  0  0  3  0  0  0  0  0  0
   -2.6460   -5.1380   -7.6540 C   0  0  0  0  0  3  0  0  0  0  0  0
   -1.8850   -4.2710   -8.4080 C   0  0  0  0  0  3  0  0  0  0  0  0
   -0.5090   -4.2210   -8.2430 C   0  0  0  0  0  3  0  0  0  0  0  0
    2.8780   -4.7380   -4.6990 O   0  0  0  0  0  0  0  0  0  0  0  0
    3.5560   -4.0170   -4.7260 H   0  0  0  0  0  0  0  0  0  0  0  0
  1  8  1  0  0  0  0
  1  6  1  0  0  0  0
  2  1  2  0  0  0  0
  3  2  1  0  0  0  0
  3  4  2  0  0  0  0
  4  5  1  0  0  0  0
  5  6  2  0  0  0  0
  5 17  1  0  0  0  0
  8  7  1  0  0  0  0
  9  4  1  0  0  0  0
 10  9  2  0  0  0  0
 11  9  1  0  0  0  0
 11 12  1  0  0  0  0
 13 12  2  0  0  0  0
 14 13  1  0  0  0  0
 15 16  1  0  0  0  0
 15 14  2  0  0  0  0
 16 11  2  0  0  0  0
 18 17  1  0  0  0  0
M  END
>  <MODEL>
6

>  <REMARK>
 VINA RESULT:      -4.4      3.188      5.423
  Name = ox2_orig_f8_ligand
  5 active torsions:
  status: ('A' for Active; 'I' for Inactive)
    1  A    between atoms: C_1  and  O_2
    2  A    between atoms: O_2  and  C_3
    3  A    between atoms: C_6  and  C_7
    4  A    between atoms: C_7  and  C_9
    5  A    between atoms: C_15  and  O_16
                            x       y       z     vdW  Elec       q    Type
                         _______ _______ _______ _____ _____    ______ ____

>  <TORSDO>
F 4

$$$$
ox2_orig_f8_ligand
 OpenBabel10092621203D

 18 19  0  0  0  0  0  0  0  0999 V2000
   -6.7290   -7.5910   -0.4760 C   0  0  0  0  0  0  0  0  0  0  0  0
   -7.9520   -7.5690    0.1620 C   0  0  0  0  0  3  0  0  0  0  0  0
   -8.8210   -6.5200   -0.0320 C   0  0  0  0  0  3  0  0  0  0  0  0
   -8.4670   -5.4800   -0.8570 C   0  0  0  0  0  0  0  0  0  0  0  0
   -7.2410   -5.5000   -1.5190 C   0  0  0  0  0  0  0  0  0  0  0  0
   -6.3820   -6.5570   -1.3170 C   0  0  0  0  0  3  0  0  0  0  0  0
   -6.4100   -9.9550   -0.4130 C   0  0  0  0  0  1  0  0  0  0  0  0
   -5.9220   -8.6580   -0.2320 O   0  0  0  0  0  0  0  0  0  0  0  0
   -9.4140   -4.3760   -1.0500 C   0  0  0  0  0  0  0  0  0  0  0  0
  -10.0310   -4.4160   -1.9710 O   0  0  0  0  0  0  0  0  0  0  0  0
   -9.7690   -3.3140   -0.1420 C   0  0  0  0  0  0  0  0  0  0  0  0
   -9.4260   -2.0210   -0.4240 C   0  0  0  0  0  3  0  0  0  0  0  0
   -9.7740   -1.0050    0.4380 C   0  0  0  0  0  3  0  0  0  0  0  0
  -10.4560   -1.2820    1.6000 C   0  0  0  0  0  3  0  0  0  0  0  0
  -10.8220   -2.5820    1.8780 C   0  0  0  0  0  3  0  0  0  0  0  0
  -10.4910   -3.6060    1.0040 C   0  0  0  0  0  3  0  0  0  0  0  0
   -6.9090   -4.4970   -2.3460 O   0  0  0  0  0  0  0  0  0  0  0  0
   -7.2940   -3.5950   -2.2100 H   0  0  0  0  0  0  0  0  0  0  0  0
  1  8  1  0  0  0  0
  1  2  1  0  0  0  0
  3  2  2  0  0  0  0
  4  3  1  0  0  0  0
  5  6  1  0  0  0  0
  5  4  2  0  0  0  0
  6  1  2  0  0  0  0
  7  8  1  0  0  0  0
  9  4  1  0  0  0  0
  9 11  1  0  0  0  0
 10  9  2  0  0  0  0
 11 16  1  0  0  0  0
 12 11  2  0  0  0  0
 12 13  1  0  0  0  0
 13 14  2  0  0  0  0
 14 15  1  0  0  0  0
 16 15  2  0  0  0  0
 17 18  1  0  0  0  0
 17  5  1  0  0  0  0
M  END
>  <MODEL>
7

>  <REMARK>
 VINA RESULT:      -4.4     13.155     15.237
  Name = ox2_orig_f8_ligand
  5 active torsions:
  status: ('A' for Active; 'I' for Inactive)
    1  A    between atoms: C_1  and  O_2
    2  A    between atoms: O_2  and  C_3
    3  A    between atoms: C_6  and  C_7
    4  A    between atoms: C_7  and  C_9
    5  A    between atoms: C_15  and  O_16
                            x       y       z     vdW  Elec       q    Type
                         _______ _______ _______ _____ _____    ______ ____

>  <TORSDO>
F 4

$$$$
ox2_orig_f8_ligand
 OpenBabel10092621203D

 18 19  0  0  0  0  0  0  0  0999 V2000
    7.7820   -7.5100   -2.7960 C   0  0  0  0  0  0  0  0  0  0  0  0
    6.6620   -6.8270   -2.3700 C   0  0  0  0  0  3  0  0  0  0  0  0
    5.4520   -7.0100   -2.9990 C   0  0  0  0  0  3  0  0  0  0  0  0
    5.3570   -7.8680   -4.0680 C   0  0  0  0  0  0  0  0  0  0  0  0
    6.4790   -8.5740   -4.4970 C   0  0  0  0  0  0  0  0  0  0  0  0
    7.6830   -8.3850   -3.8570 C   0  0  0  0  0  3  0  0  0  0  0  0
    9.8040   -6.2650   -2.5650 C   0  0  0  0  0  1  0  0  0  0  0  0
    8.9430   -7.2750   -2.1280 O   0  0  0  0  0  0  0  0  0  0  0  0
    4.0550   -8.0470   -4.7190 C   0  0  0  0  0  0  0  0  0  0  0  0
    3.4370   -8.8920   -4.3530 O   0  0  0  0  0  0  0  0  0  0  0  0
    3.3890   -7.1920   -5.6700 C   0  0  0  0  0  0  0  0  0  0  0  0
    3.0290   -7.6740   -6.8970 C   0  0  0  0  0  3  0  0  0  0  0  0
    2.3830   -6.8610   -7.8020 C   0  0  0  0  0  3  0  0  0  0  0  0
    2.1090   -5.5510   -7.4870 C   0  0  0  0  0  3  0  0  0  0  0  0
    2.4520   -5.0660   -6.2430 C   0  0  0  0  0  3  0  0  0  0  0  0
    3.0840   -5.8860   -5.3210 C   0  0  0  0  0  3  0  0  0  0  0  0
    6.3780   -9.4330   -5.5230 O   0  0  0  0  0  0  0  0  0  0  0  0
    5.5620   -9.4410   -6.0840 H   0  0  0  0  0  0  0  0  0  0  0  0
  1  2  1  0  0  0  0
  1  8  1  0  0  0  0
  3  2  2  0  0  0  0
  4  3  1  0  0  0  0
  5  4  2  0  0  0  0
  5  6  1  0  0  0  0
  6  1  2  0  0  0  0
  7  8  1  0  0  0  0
  9 10  2  0  0  0  0
  9  4  1  0  0  0  0
 11 16  1  0  0  0  0
 11  9  1  0  0  0  0
 12 11  2  0  0  0  0
 13 14  2  0  0  0  0
 13 12  1  0  0  0  0
 14 15  1  0  0  0  0
 15 16  2  0  0  0  0
 17  5  1  0  0  0  0
 18 17  1  0  0  0  0
M  END
>  <MODEL>
8

>  <REMARK>
 VINA RESULT:      -4.4      1.365      2.009
  Name = ox2_orig_f8_ligand
  5 active torsions:
  status: ('A' for Active; 'I' for Inactive)
    1  A    between atoms: C_1  and  O_2
    2  A    between atoms: O_2  and  C_3
    3  A    between atoms: C_6  and  C_7
    4  A    between atoms: C_7  and  C_9
    5  A    between atoms: C_15  and  O_16
                            x       y       z     vdW  Elec       q    Type
                         _______ _______ _______ _____ _____    ______ ____

>  <TORSDO>
F 4

$$$$
ox2_orig_f8_ligand
 OpenBabel10092621203D

 18 19  0  0  0  0  0  0  0  0999 V2000
    2.5920   -5.5870   -6.2130 C   0  0  0  0  0  0  0  0  0  0  0  0
    2.8060   -6.8400   -6.7490 C   0  0  0  0  0  3  0  0  0  0  0  0
    3.6280   -7.7400   -6.1110 C   0  0  0  0  0  3  0  0  0  0  0  0
    4.2530   -7.3870   -4.9390 C   0  0  0  0  0  0  0  0  0  0  0  0
    4.0320   -6.1300   -4.3820 C   0  0  0  0  0  0  0  0  0  0  0  0
    3.2050   -5.2400   -5.0280 C   0  0  0  0  0  3  0  0  0  0  0  0
    1.7290   -4.8090   -8.2980 C   0  0  0  0  0  1  0  0  0  0  0  0
    1.7700   -4.7510   -6.9010 O   0  0  0  0  0  0  0  0  0  0  0  0
    5.1220   -8.3660   -4.2780 C   0  0  0  0  0  0  0  0  0  0  0  0
    4.6420   -9.0100   -3.5130 O   0  0  0  0  0  0  0  0  0  0  0  0
    6.4870   -8.7220   -4.5800 C   0  0  0  0  0  0  0  0  0  0  0  0
    6.7590   -9.6890   -5.5070 C   0  0  0  0  0  3  0  0  0  0  0  0
    8.0630  -10.0210   -5.8030 C   0  0  0  0  0  3  0  0  0  0  0  0
    9.1030   -9.3960   -5.1570 C   0  0  0  0  0  3  0  0  0  0  0  0
    8.8340   -8.4060   -4.2370 C   0  0  0  0  0  3  0  0  0  0  0  0
    7.5240   -8.0530   -3.9490 C   0  0  0  0  0  3  0  0  0  0  0  0
    4.6210   -5.7970   -3.2220 O   0  0  0  0  0  0  0  0  0  0  0  0
    5.4290   -6.2840   -2.9200 H   0  0  0  0  0  0  0  0  0  0  0  0
  1  6  1  0  0  0  0
  2  1  2  0  0  0  0
  2  3  1  0  0  0  0
  3  4  2  0  0  0  0
  4  5  1  0  0  0  0
  4  9  1  0  0  0  0
  5 17  1  0  0  0  0
  6  5  2  0  0  0  0
  7  8  1  0  0  0  0
  8  1  1  0  0  0  0
  9 10  2  0  0  0  0
 11  9  1  0  0  0  0
 11 16  1  0  0  0  0
 12 11  2  0  0  0  0
 13 12  1  0  0  0  0
 13 14  2  0  0  0  0
 14 15  1  0  0  0  0
 15 16  2  0  0  0  0
 17 18  1  0  0  0  0
M  END
>  <MODEL>
9

>  <REMARK>
 VINA RESULT:      -4.4      2.173      5.773
  Name = ox2_orig_f8_ligand
  5 active torsions:
  status: ('A' for Active; 'I' for Inactive)
    1  A    between atoms: C_1  and  O_2
    2  A    between atoms: O_2  and  C_3
    3  A    between atoms: C_6  and  C_7
    4  A    between atoms: C_7  and  C_9
    5  A    between atoms: C_15  and  O_16
                            x       y       z     vdW  Elec       q    Type
                         _______ _______ _______ _____ _____    ______ ____

>  <TORSDO>
F 4

$$$$
