bgox31_5_dockpose2
     RDKit          3D

 17 18  0  0  0  0  0  0  0  0999 V2000
    5.5370   -1.3010    6.0920 C   0  0  0  0  0  0  0  0  0  0  0  0
    5.8900   -1.8250    4.7800 O   0  0  0  0  0  0  0  0  0  0  0  0
    5.6540   -1.0480    3.5910 C   0  0  0  0  0  0  0  0  0  0  0  0
    6.8070   -0.6540    2.9880 C   0  0  0  0  0  0  0  0  0  0  0  0
    6.7410    0.1090    1.8030 C   0  0  0  0  0  0  0  0  0  0  0  0
    5.5470    0.4680    1.2110 C   0  0  0  0  0  0  0  0  0  0  0  0
    5.5550    1.2320   -0.0130 C   0  0  0  0  0  0  0  0  0  0  0  0
    4.6630    1.0270   -0.8470 O   0  0  0  0  0  0  0  0  0  0  0  0
    6.6820    2.1720   -0.3110 C   0  0  0  0  0  0  0  0  0  0  0  0
    6.8960    3.3700    0.3470 C   0  0  0  0  0  0  0  0  0  0  0  0
    7.9870    4.2170    0.0100 C   0  0  0  0  0  0  0  0  0  0  0  0
    8.8810    3.8890   -0.9650 C   0  0  0  0  0  0  0  0  0  0  0  0
    8.7170    2.6950   -1.6260 C   0  0  0  0  0  0  0  0  0  0  0  0
    7.6090    1.8750   -1.3080 C   0  0  0  0  0  0  0  0  0  0  0  0
    4.3670    0.0520    1.8220 C   0  0  0  0  0  0  0  0  0  0  0  0
    3.1750    0.3960    1.2760 O   0  0  0  0  0  0  0  0  0  0  0  0
    4.4180   -0.7170    3.0170 C   0  0  0  0  0  0  0  0  0  0  0  0
  2  1  1  0
  3  2  1  0
  4  3  1  0
  5  4  2  0
  6  5  1  0
  7  6  1  0
  8  7  2  0
  9  7  1  0
 10  9  2  0
 11 10  1  0
 12 11  2  0
 13 12  1  0
 14 13  2  0
 14  9  1  0
 15  6  2  0
 16 15  1  0
 17 15  1  0
 17  3  2  0
M  END
$$$$
