bg33_4_ligand
     RDKit          3D

 44 44  0  0  0  0  0  0  0  0999 V2000
   -2.1720    2.9605    3.4579 C   0  0  0  0  0  0  0  0  0  0  0  0
   -2.9113    2.1725    4.5043 C   0  0  0  0  0  0  0  0  0  0  0  0
   -2.0983    1.0175    5.0846 C   0  0  0  0  0  0  0  0  0  0  0  0
   -2.9269    0.1233    5.9709 C   0  0  0  0  0  0  0  0  0  0  0  0
   -1.9802   -0.7961    6.8734 C   0  0  1  0  0  0  0  0  0  0  0  0
   -2.4929   -2.2499    7.0888 C   0  0  0  0  0  0  0  0  0  0  0  0
   -3.6157   -2.3112    8.1749 C   0  0  0  0  0  0  0  0  0  0  0  0
   -0.7932   -1.0272    6.1933 O   0  0  0  0  0  0  0  0  0  0  0  0
    0.4627   -1.1073    6.9442 C   0  0  0  0  0  0  0  0  0  0  0  0
    0.4473   -1.2902    8.1991 O   0  0  0  0  0  0  0  0  0  0  0  0
    1.6962   -1.1115    6.1421 C   0  0  0  0  0  0  0  0  0  0  0  0
    1.6090   -0.7043    4.7691 C   0  0  0  0  0  0  0  0  0  0  0  0
    2.8202   -0.7849    3.8535 C   0  0  0  0  0  0  0  0  0  0  0  0
    4.1106   -0.6244    4.3113 C   0  0  0  0  0  0  0  0  0  0  0  0
    5.2359   -0.7105    3.4212 C   0  0  0  0  0  0  0  0  0  0  0  0
    5.0797   -0.9825    2.0504 C   0  0  0  0  0  0  0  0  0  0  0  0
    6.1236   -1.1336    1.1595 O   0  0  0  0  0  0  0  0  0  0  0  0
    7.4816   -1.0603    1.6626 C   0  0  0  0  0  0  0  0  0  0  0  0
    3.7674   -1.1572    1.6174 C   0  0  0  0  0  0  0  0  0  0  0  0
    2.6742   -1.0778    2.4903 C   0  0  0  0  0  0  0  0  0  0  0  0
   -2.2036    4.0299    3.7140 H   0  0  0  0  0  0  0  0  0  0  0  0
   -1.1256    2.6240    3.4169 H   0  0  0  0  0  0  0  0  0  0  0  0
   -2.6462    2.8041    2.4779 H   0  0  0  0  0  0  0  0  0  0  0  0
   -3.1841    2.8529    5.3245 H   0  0  0  0  0  0  0  0  0  0  0  0
   -3.7936    1.7335    4.0153 H   0  0  0  0  0  0  0  0  0  0  0  0
   -1.6943    0.4177    4.2556 H   0  0  0  0  0  0  0  0  0  0  0  0
   -1.2935    1.4478    5.6987 H   0  0  0  0  0  0  0  0  0  0  0  0
   -3.5586    0.7440    6.6233 H   0  0  0  0  0  0  0  0  0  0  0  0
   -3.5557   -0.5219    5.3400 H   0  0  0  0  0  0  0  0  0  0  0  0
   -1.9116   -0.2500    7.8258 H   0  0  0  0  0  0  0  0  0  0  0  0
   -2.8948   -2.6309    6.1384 H   0  0  0  0  0  0  0  0  0  0  0  0
   -1.6480   -2.8642    7.4335 H   0  0  0  0  0  0  0  0  0  0  0  0
   -3.6572   -1.3531    8.7137 H   0  0  0  0  0  0  0  0  0  0  0  0
   -4.5845   -2.5017    7.6903 H   0  0  0  0  0  0  0  0  0  0  0  0
   -3.3950   -3.1219    8.8850 H   0  0  0  0  0  0  0  0  0  0  0  0
    2.6567   -1.4177    6.5819 H   0  0  0  0  0  0  0  0  0  0  0  0
    0.6536   -0.3289    4.3739 H   0  0  0  0  0  0  0  0  0  0  0  0
    4.2825   -0.4264    5.3795 H   0  0  0  0  0  0  0  0  0  0  0  0
    6.2483   -0.5594    3.8238 H   0  0  0  0  0  0  0  0  0  0  0  0
    7.5205   -0.3631    2.5125 H   0  0  0  0  0  0  0  0  0  0  0  0
    7.8048   -2.0587    1.9922 H   0  0  0  0  0  0  0  0  0  0  0  0
    8.1494   -0.7034    0.8648 H   0  0  0  0  0  0  0  0  0  0  0  0
    3.5828   -1.3647    0.5530 H   0  0  0  0  0  0  0  0  0  0  0  0
    1.6641   -1.2517    2.0913 H   0  0  0  0  0  0  0  0  0  0  0  0
  2  1  1  0
  3  2  1  0
  4  3  1  0
  5  4  1  0
  6  5  1  0
  7  6  1  0
  8  5  1  0
  9  8  1  0
 10  9  2  0
 11  9  1  0
 12 11  2  3
 13 12  1  0
 14 13  1  0
 15 14  2  0
 16 15  1  0
 17 16  1  0
 18 17  1  0
 19 16  2  0
 20 19  1  0
 20 13  2  0
  1 21  1  0
  1 22  1  0
  1 23  1  0
  2 24  1  0
  2 25  1  0
  3 26  1  0
  3 27  1  0
  4 28  1  0
  4 29  1  0
  5 30  1  1
  6 31  1  0
  6 32  1  0
  7 33  1  0
  7 34  1  0
  7 35  1  0
 11 36  1  0
 12 37  1  0
 14 38  1  0
 15 39  1  0
 18 40  1  0
 18 41  1  0
 18 42  1  0
 19 43  1  0
 20 44  1  0
M  END
$$$$
