orig_f12_ligand
     RDKit          3D

 44 44  0  0  0  0  0  0  0  0999 V2000
  -10.6446    0.5970    6.0335 C   0  0  0  0  0  0  0  0  0  0  0  0
   -9.3681    0.0339    5.4569 C   0  0  0  0  0  0  0  0  0  0  0  0
   -8.8466    0.8725    4.3249 C   0  0  0  0  0  0  0  0  0  0  0  0
   -7.5946    0.3034    3.7422 C   0  0  0  0  0  0  0  0  0  0  0  0
   -7.0565    1.0844    2.5629 C   0  0  2  0  0  0  0  0  0  0  0  0
   -5.8787    0.3642    1.9246 C   0  0  0  0  0  0  0  0  0  0  0  0
   -4.5119    0.8981    2.3115 C   0  0  0  0  0  0  0  0  0  0  0  0
   -6.6466    2.3526    3.0145 O   0  0  0  0  0  0  0  0  0  0  0  0
   -7.2029    3.4353    2.4902 C   0  0  0  0  0  0  0  0  0  0  0  0
   -8.2093    3.3976    1.8157 O   0  0  0  0  0  0  0  0  0  0  0  0
   -6.4368    4.6559    2.7735 C   0  0  0  0  0  0  0  0  0  0  0  0
   -6.5903    5.7236    1.9816 C   0  0  0  0  0  0  0  0  0  0  0  0
   -5.7732    6.9406    2.1280 C   0  0  0  0  0  0  0  0  0  0  0  0
   -4.9232    7.1276    3.1944 C   0  0  0  0  0  0  0  0  0  0  0  0
   -4.1419    8.2682    3.2810 C   0  0  0  0  0  0  0  0  0  0  0  0
   -4.2189    9.2259    2.3059 C   0  0  0  0  0  0  0  0  0  0  0  0
   -3.4609   10.3614    2.3298 O   0  0  0  0  0  0  0  0  0  0  0  0
   -2.8270   10.7629    3.5383 C   0  0  0  0  0  0  0  0  0  0  0  0
   -5.0675    9.0457    1.2297 C   0  0  0  0  0  0  0  0  0  0  0  0
   -5.8554    7.9037    1.1524 C   0  0  0  0  0  0  0  0  0  0  0  0
  -11.4697   -0.1084    5.8557 H   0  0  0  0  0  0  0  0  0  0  0  0
  -10.5213    0.7516    7.1155 H   0  0  0  0  0  0  0  0  0  0  0  0
  -10.8731    1.5579    5.5494 H   0  0  0  0  0  0  0  0  0  0  0  0
   -8.6070   -0.0058    6.2500 H   0  0  0  0  0  0  0  0  0  0  0  0
   -9.5853   -0.9706    5.0648 H   0  0  0  0  0  0  0  0  0  0  0  0
   -9.6136    0.9248    3.5382 H   0  0  0  0  0  0  0  0  0  0  0  0
   -8.6152    1.8728    4.7198 H   0  0  0  0  0  0  0  0  0  0  0  0
   -6.8241    0.2863    4.5270 H   0  0  0  0  0  0  0  0  0  0  0  0
   -7.8434   -0.7023    3.3722 H   0  0  0  0  0  0  0  0  0  0  0  0
   -7.8474    1.1828    1.8049 H   0  0  0  0  0  0  0  0  0  0  0  0
   -5.9267   -0.6948    2.2184 H   0  0  0  0  0  0  0  0  0  0  0  0
   -5.9739    0.5222    0.8401 H   0  0  0  0  0  0  0  0  0  0  0  0
   -4.4748    1.0568    3.3994 H   0  0  0  0  0  0  0  0  0  0  0  0
   -3.7386    0.1719    2.0204 H   0  0  0  0  0  0  0  0  0  0  0  0
   -4.3315    1.8526    1.7954 H   0  0  0  0  0  0  0  0  0  0  0  0
   -5.7445    4.6919    3.6275 H   0  0  0  0  0  0  0  0  0  0  0  0
   -7.3551    5.6914    1.1916 H   0  0  0  0  0  0  0  0  0  0  0  0
   -4.8639    6.3647    3.9847 H   0  0  0  0  0  0  0  0  0  0  0  0
   -3.4596    8.4044    4.1330 H   0  0  0  0  0  0  0  0  0  0  0  0
   -3.5267   10.6392    4.3780 H   0  0  0  0  0  0  0  0  0  0  0  0
   -1.9357   10.1414    3.7089 H   0  0  0  0  0  0  0  0  0  0  0  0
   -2.5285   11.8190    3.4624 H   0  0  0  0  0  0  0  0  0  0  0  0
   -5.1189    9.8052    0.4356 H   0  0  0  0  0  0  0  0  0  0  0  0
   -6.5469    7.7708    0.3074 H   0  0  0  0  0  0  0  0  0  0  0  0
  2  1  1  0
  3  2  1  0
  4  3  1  0
  5  4  1  0
  6  5  1  0
  7  6  1  0
  8  5  1  0
  9  8  1  0
 10  9  2  0
 11  9  1  0
 12 11  2  3
 13 12  1  0
 14 13  1  0
 15 14  2  0
 16 15  1  0
 17 16  1  0
 18 17  1  0
 19 16  2  0
 20 19  1  0
 20 13  2  0
  1 21  1  0
  1 22  1  0
  1 23  1  0
  2 24  1  0
  2 25  1  0
  3 26  1  0
  3 27  1  0
  4 28  1  0
  4 29  1  0
  5 30  1  6
  6 31  1  0
  6 32  1  0
  7 33  1  0
  7 34  1  0
  7 35  1  0
 11 36  1  0
 12 37  1  0
 14 38  1  0
 15 39  1  0
 18 40  1  0
 18 41  1  0
 18 42  1  0
 19 43  1  0
 20 44  1  0
M  END
$$$$
