s3_esm2_f4_ligand
     RDKit          3D

 44 44  0  0  0  0  0  0  0  0999 V2000
   11.8743   -4.2548   -4.0008 C   0  0  0  0  0  0  0  0  0  0  0  0
   11.5280   -3.0454   -4.8750 C   0  0  0  0  0  0  0  0  0  0  0  0
   10.1403   -2.5452   -4.5614 C   0  0  0  0  0  0  0  0  0  0  0  0
    9.7648   -1.3987   -5.4577 C   0  0  0  0  0  0  0  0  0  0  0  0
    8.2809   -1.0739   -5.3575 C   0  0  2  0  0  0  0  0  0  0  0  0
    7.7384   -0.7657   -6.7329 C   0  0  0  0  0  0  0  0  0  0  0  0
    6.7627    0.3728   -6.7759 C   0  0  0  0  0  0  0  0  0  0  0  0
    8.1046    0.0411   -4.5029 O   0  0  0  0  0  0  0  0  0  0  0  0
    7.5599   -0.1478   -3.2730 C   0  0  0  0  0  0  0  0  0  0  0  0
    7.4535   -1.2412   -2.7875 O   0  0  0  0  0  0  0  0  0  0  0  0
    7.0945    1.0672   -2.6110 C   0  0  0  0  0  0  0  0  0  0  0  0
    7.4676    2.2657   -3.0434 C   0  0  0  0  0  0  0  0  0  0  0  0
    6.8731    3.5287   -2.5539 C   0  0  0  0  0  0  0  0  0  0  0  0
    5.7144    3.5318   -1.8042 C   0  0  0  0  0  0  0  0  0  0  0  0
    5.1635    4.7304   -1.3893 C   0  0  0  0  0  0  0  0  0  0  0  0
    5.7480    5.9181   -1.7132 C   0  0  0  0  0  0  0  0  0  0  0  0
    5.1739    7.0684   -1.2985 O   0  0  0  0  0  0  0  0  0  0  0  0
    5.5516    8.2999   -1.8916 C   0  0  0  0  0  0  0  0  0  0  0  0
    6.9106    5.9166   -2.4563 C   0  0  0  0  0  0  0  0  0  0  0  0
    7.4643    4.7227   -2.8701 C   0  0  0  0  0  0  0  0  0  0  0  0
   12.8394   -4.0823   -3.5019 H   0  0  0  0  0  0  0  0  0  0  0  0
   11.0897   -4.3959   -3.2426 H   0  0  0  0  0  0  0  0  0  0  0  0
   11.9422   -5.1545   -4.6299 H   0  0  0  0  0  0  0  0  0  0  0  0
   12.2540   -2.2414   -4.6842 H   0  0  0  0  0  0  0  0  0  0  0  0
   11.5659   -3.3486   -5.9316 H   0  0  0  0  0  0  0  0  0  0  0  0
    9.4212   -3.3650   -4.7060 H   0  0  0  0  0  0  0  0  0  0  0  0
   10.1216   -2.1951   -3.5188 H   0  0  0  0  0  0  0  0  0  0  0  0
   10.3453   -0.5114   -5.1650 H   0  0  0  0  0  0  0  0  0  0  0  0
    9.9854   -1.6864   -6.4962 H   0  0  0  0  0  0  0  0  0  0  0  0
    7.7369   -1.9361   -4.9442 H   0  0  0  0  0  0  0  0  0  0  0  0
    8.5857   -0.5168   -7.3887 H   0  0  0  0  0  0  0  0  0  0  0  0
    7.1894   -1.6608   -7.0607 H   0  0  0  0  0  0  0  0  0  0  0  0
    7.2990    1.3212   -6.6251 H   0  0  0  0  0  0  0  0  0  0  0  0
    6.2594    0.3877   -7.7540 H   0  0  0  0  0  0  0  0  0  0  0  0
    6.0140    0.2443   -5.9803 H   0  0  0  0  0  0  0  0  0  0  0  0
    6.4251    0.9886   -1.7415 H   0  0  0  0  0  0  0  0  0  0  0  0
    8.2595    2.3225   -3.8048 H   0  0  0  0  0  0  0  0  0  0  0  0
    5.2295    2.5815   -1.5369 H   0  0  0  0  0  0  0  0  0  0  0  0
    4.2411    4.7250   -0.7899 H   0  0  0  0  0  0  0  0  0  0  0  0
    6.4942    8.6486   -1.4442 H   0  0  0  0  0  0  0  0  0  0  0  0
    5.6895    8.1588   -2.9738 H   0  0  0  0  0  0  0  0  0  0  0  0
    4.7640    9.0478   -1.7168 H   0  0  0  0  0  0  0  0  0  0  0  0
    7.3962    6.8681   -2.7190 H   0  0  0  0  0  0  0  0  0  0  0  0
    8.3919    4.7299   -3.4612 H   0  0  0  0  0  0  0  0  0  0  0  0
  2  1  1  0
  3  2  1  0
  4  3  1  0
  5  4  1  0
  6  5  1  0
  7  6  1  0
  8  5  1  0
  9  8  1  0
 10  9  2  0
 11  9  1  0
 12 11  2  3
 13 12  1  0
 14 13  1  0
 15 14  2  0
 16 15  1  0
 17 16  1  0
 18 17  1  0
 19 16  2  0
 20 19  1  0
 20 13  2  0
  1 21  1  0
  1 22  1  0
  1 23  1  0
  2 24  1  0
  2 25  1  0
  3 26  1  0
  3 27  1  0
  4 28  1  0
  4 29  1  0
  5 30  1  1
  6 31  1  0
  6 32  1  0
  7 33  1  0
  7 34  1  0
  7 35  1  0
 11 36  1  0
 12 37  1  0
 14 38  1  0
 15 39  1  0
 18 40  1  0
 18 41  1  0
 18 42  1  0
 19 43  1  0
 20 44  1  0
M  END
$$$$
