s3_orig_f12_ligand
     RDKit          3D

 44 44  0  0  0  0  0  0  0  0999 V2000
  -12.3214   -5.6718  -12.5902 C   0  0  0  0  0  0  0  0  0  0  0  0
  -11.3241   -6.1095  -11.5396 C   0  0  0  0  0  0  0  0  0  0  0  0
  -11.0881   -5.0312  -10.5132 C   0  0  0  0  0  0  0  0  0  0  0  0
  -10.1306   -5.4495   -9.4464 C   0  0  0  0  0  0  0  0  0  0  0  0
   -9.3260   -4.3170   -8.8283 C   0  0  2  0  0  0  0  0  0  0  0  0
   -8.6999   -4.7753   -7.5242 C   0  0  0  0  0  0  0  0  0  0  0  0
   -7.8925   -6.0632   -7.6411 C   0  0  0  0  0  0  0  0  0  0  0  0
  -10.0675   -3.2452   -8.6258 O   0  0  0  0  0  0  0  0  0  0  0  0
  -10.8950   -2.4341   -8.1880 C   0  0  0  0  0  0  0  0  0  0  0  0
  -11.5538   -2.7506   -7.2311 O   0  0  0  0  0  0  0  0  0  0  0  0
  -11.0352   -1.1465   -8.9072 C   0  0  0  0  0  0  0  0  0  0  0  0
  -11.9197   -0.2243   -8.5361 C   0  0  0  0  0  0  0  0  0  0  0  0
  -12.1734    1.0388   -9.2741 C   0  0  0  0  0  0  0  0  0  0  0  0
  -13.3141    1.7716   -8.9911 C   0  0  0  0  0  0  0  0  0  0  0  0
  -13.6187    2.9142   -9.7221 C   0  0  0  0  0  0  0  0  0  0  0  0
  -12.7619    3.3749  -10.7005 C   0  0  0  0  0  0  0  0  0  0  0  0
  -13.0149    4.5128  -11.4390 O   0  0  0  0  0  0  0  0  0  0  0  0
  -14.3677    4.8515  -11.6824 C   0  0  0  0  0  0  0  0  0  0  0  0
  -11.6086    2.6762  -10.9409 C   0  0  0  0  0  0  0  0  0  0  0  0
  -11.3143    1.5118  -10.2326 C   0  0  0  0  0  0  0  0  0  0  0  0
  -11.8146   -5.5834  -13.5626 H   0  0  0  0  0  0  0  0  0  0  0  0
  -13.1275   -6.4166  -12.6633 H   0  0  0  0  0  0  0  0  0  0  0  0
  -12.7469   -4.6973  -12.3086 H   0  0  0  0  0  0  0  0  0  0  0  0
  -11.7102   -7.0061  -11.0327 H   0  0  0  0  0  0  0  0  0  0  0  0
  -10.3681   -6.3215  -12.0407 H   0  0  0  0  0  0  0  0  0  0  0  0
  -10.6824   -4.1442  -11.0218 H   0  0  0  0  0  0  0  0  0  0  0  0
  -12.0521   -4.8176  -10.0287 H   0  0  0  0  0  0  0  0  0  0  0  0
  -10.7041   -5.9380   -8.6449 H   0  0  0  0  0  0  0  0  0  0  0  0
   -9.4024   -6.1171   -9.9300 H   0  0  0  0  0  0  0  0  0  0  0  0
   -8.5314   -4.0429   -9.5381 H   0  0  0  0  0  0  0  0  0  0  0  0
   -8.0315   -3.9797   -7.1634 H   0  0  0  0  0  0  0  0  0  0  0  0
   -9.5278   -4.9813   -6.8297 H   0  0  0  0  0  0  0  0  0  0  0  0
   -7.6733   -6.2635   -8.7003 H   0  0  0  0  0  0  0  0  0  0  0  0
   -6.9493   -5.9564   -7.0854 H   0  0  0  0  0  0  0  0  0  0  0  0
   -8.4723   -6.8988   -7.2223 H   0  0  0  0  0  0  0  0  0  0  0  0
  -10.3883   -0.9467   -9.7742 H   0  0  0  0  0  0  0  0  0  0  0  0
  -12.5019   -0.4103   -7.6215 H   0  0  0  0  0  0  0  0  0  0  0  0
  -13.9843    1.4469   -8.1816 H   0  0  0  0  0  0  0  0  0  0  0  0
  -14.5535    3.4572   -9.5183 H   0  0  0  0  0  0  0  0  0  0  0  0
  -14.4979    5.0992  -12.7462 H   0  0  0  0  0  0  0  0  0  0  0  0
  -15.0116    3.9983  -11.4231 H   0  0  0  0  0  0  0  0  0  0  0  0
  -14.6445    5.7202  -11.0671 H   0  0  0  0  0  0  0  0  0  0  0  0
  -10.9043    3.0389  -11.7040 H   0  0  0  0  0  0  0  0  0  0  0  0
  -10.3828    0.9666  -10.4449 H   0  0  0  0  0  0  0  0  0  0  0  0
  2  1  1  0
  3  2  1  0
  4  3  1  0
  5  4  1  0
  6  5  1  0
  7  6  1  0
  8  5  1  0
  9  8  1  0
 10  9  2  0
 11  9  1  0
 12 11  2  3
 13 12  1  0
 14 13  1  0
 15 14  2  0
 16 15  1  0
 17 16  1  0
 18 17  1  0
 19 16  2  0
 20 19  1  0
 20 13  2  0
  1 21  1  0
  1 22  1  0
  1 23  1  0
  2 24  1  0
  2 25  1  0
  3 26  1  0
  3 27  1  0
  4 28  1  0
  4 29  1  0
  5 30  1  6
  6 31  1  0
  6 32  1  0
  7 33  1  0
  7 34  1  0
  7 35  1  0
 11 36  1  0
 12 37  1  0
 14 38  1  0
 15 39  1  0
 18 40  1  0
 18 41  1  0
 18 42  1  0
 19 43  1  0
 20 44  1  0
M  END
$$$$
