shuffle_control_esm0_ligand
     RDKit          3D

 44 44  0  0  0  0  0  0  0  0999 V2000
   -1.2780   -2.7220   -7.7298 C   0  0  0  0  0  0  0  0  0  0  0  0
    0.0834   -2.8855   -7.1504 C   0  0  0  0  0  0  0  0  0  0  0  0
    0.3551   -2.2190   -5.8359 C   0  0  0  0  0  0  0  0  0  0  0  0
   -0.8195   -1.9017   -4.9762 C   0  0  0  0  0  0  0  0  0  0  0  0
   -0.4780   -1.4331   -3.5996 C   0  0  1  0  0  0  0  0  0  0  0  0
   -1.7402   -1.4984   -2.7591 C   0  0  0  0  0  0  0  0  0  0  0  0
   -1.6544   -0.9102   -1.3803 C   0  0  0  0  0  0  0  0  0  0  0  0
    0.5581   -2.2706   -3.0965 O   0  0  0  0  0  0  0  0  0  0  0  0
    1.6677   -1.7768   -2.4932 C   0  0  0  0  0  0  0  0  0  0  0  0
    1.7857   -0.6176   -2.2511 O   0  0  0  0  0  0  0  0  0  0  0  0
    2.7071   -2.8040   -2.1785 C   0  0  0  0  0  0  0  0  0  0  0  0
    3.5691   -3.2007   -3.0979 C   0  0  0  0  0  0  0  0  0  0  0  0
    4.5455   -4.3112   -2.8866 C   0  0  0  0  0  0  0  0  0  0  0  0
    4.6238   -5.3007   -3.8329 C   0  0  0  0  0  0  0  0  0  0  0  0
    5.4926   -6.3710   -3.6737 C   0  0  0  0  0  0  0  0  0  0  0  0
    6.3051   -6.4522   -2.5584 C   0  0  0  0  0  0  0  0  0  0  0  0
    7.1545   -7.4819   -2.3598 O   0  0  0  0  0  0  0  0  0  0  0  0
    7.1633   -8.5721   -3.2793 C   0  0  0  0  0  0  0  0  0  0  0  0
    6.2319   -5.4415   -1.5996 C   0  0  0  0  0  0  0  0  0  0  0  0
    5.3567   -4.3640   -1.7690 C   0  0  0  0  0  0  0  0  0  0  0  0
   -1.9945   -2.4995   -6.9256 H   0  0  0  0  0  0  0  0  0  0  0  0
   -1.2712   -1.8942   -8.4542 H   0  0  0  0  0  0  0  0  0  0  0  0
   -1.5742   -3.6515   -8.2380 H   0  0  0  0  0  0  0  0  0  0  0  0
    0.2586   -3.9632   -7.0170 H   0  0  0  0  0  0  0  0  0  0  0  0
    0.7561   -2.3873   -7.8641 H   0  0  0  0  0  0  0  0  0  0  0  0
    1.0171   -2.8821   -5.2596 H   0  0  0  0  0  0  0  0  0  0  0  0
    0.7861   -1.2415   -6.0981 H   0  0  0  0  0  0  0  0  0  0  0  0
   -1.4033   -1.1120   -5.4718 H   0  0  0  0  0  0  0  0  0  0  0  0
   -1.3779   -2.8415   -4.8545 H   0  0  0  0  0  0  0  0  0  0  0  0
   -0.1127   -0.3956   -3.5835 H   0  0  0  0  0  0  0  0  0  0  0  0
   -2.5326   -0.9631   -3.3027 H   0  0  0  0  0  0  0  0  0  0  0  0
   -1.9361   -2.5703   -2.6083 H   0  0  0  0  0  0  0  0  0  0  0  0
   -1.9539   -1.6665   -0.6397 H   0  0  0  0  0  0  0  0  0  0  0  0
   -0.6206   -0.5915   -1.1813 H   0  0  0  0  0  0  0  0  0  0  0  0
   -2.3260   -0.0418   -1.3096 H   0  0  0  0  0  0  0  0  0  0  0  0
    2.7550   -3.2355   -1.1677 H   0  0  0  0  0  0  0  0  0  0  0  0
    3.5675   -2.6862   -4.0702 H   0  0  0  0  0  0  0  0  0  0  0  0
    3.9896   -5.2452   -4.7301 H   0  0  0  0  0  0  0  0  0  0  0  0
    5.5350   -7.1594   -4.4396 H   0  0  0  0  0  0  0  0  0  0  0  0
    7.1212   -9.5206   -2.7238 H   0  0  0  0  0  0  0  0  0  0  0  0
    6.2904   -8.4977   -3.9445 H   0  0  0  0  0  0  0  0  0  0  0  0
    8.0851   -8.5389   -3.8786 H   0  0  0  0  0  0  0  0  0  0  0  0
    6.8676   -5.4925   -0.7032 H   0  0  0  0  0  0  0  0  0  0  0  0
    5.3142   -3.5627   -1.0165 H   0  0  0  0  0  0  0  0  0  0  0  0
  2  1  1  0
  3  2  1  0
  4  3  1  0
  5  4  1  0
  6  5  1  0
  7  6  1  0
  8  5  1  0
  9  8  1  0
 10  9  2  0
 11  9  1  0
 12 11  2  3
 13 12  1  0
 14 13  1  0
 15 14  2  0
 16 15  1  0
 17 16  1  0
 18 17  1  0
 19 16  2  0
 20 13  2  0
 20 19  1  0
  1 21  1  0
  1 22  1  0
  1 23  1  0
  2 24  1  0
  2 25  1  0
  3 26  1  0
  3 27  1  0
  4 28  1  0
  4 29  1  0
  5 30  1  6
  6 31  1  0
  6 32  1  0
  7 33  1  0
  7 34  1  0
  7 35  1  0
 11 36  1  0
 12 37  1  0
 14 38  1  0
 15 39  1  0
 18 40  1  0
 18 41  1  0
 18 42  1  0
 19 43  1  0
 20 44  1  0
M  END
$$$$
