shuffle_control_ligand
     RDKit          3D

 44 44  0  0  0  0  0  0  0  0999 V2000
   -8.0683   -3.0330   -4.8277 C   0  0  0  0  0  0  0  0  0  0  0  0
   -7.4099   -3.6882   -3.6459 C   0  0  0  0  0  0  0  0  0  0  0  0
   -6.2703   -2.8639   -3.1070 C   0  0  0  0  0  0  0  0  0  0  0  0
   -5.6502   -3.4826   -1.8957 C   0  0  0  0  0  0  0  0  0  0  0  0
   -4.4407   -2.7383   -1.3784 C   0  0  2  0  0  0  0  0  0  0  0  0
   -4.0898   -3.2632    0.0052 C   0  0  0  0  0  0  0  0  0  0  0  0
   -3.2855   -2.3334    0.8478 C   0  0  0  0  0  0  0  0  0  0  0  0
   -4.7562   -1.3631   -1.3071 O   0  0  0  0  0  0  0  0  0  0  0  0
   -4.1114   -0.4807   -2.0774 C   0  0  0  0  0  0  0  0  0  0  0  0
   -3.2331   -0.8180   -2.8256 O   0  0  0  0  0  0  0  0  0  0  0  0
   -4.5809    0.9156   -1.9126 C   0  0  0  0  0  0  0  0  0  0  0  0
   -4.0093    1.9140   -2.5930 C   0  0  0  0  0  0  0  0  0  0  0  0
   -4.4024    3.3369   -2.4617 C   0  0  0  0  0  0  0  0  0  0  0  0
   -5.5302    3.7297   -1.7899 C   0  0  0  0  0  0  0  0  0  0  0  0
   -5.8614    5.0771   -1.6894 C   0  0  0  0  0  0  0  0  0  0  0  0
   -5.0652    6.0334   -2.2636 C   0  0  0  0  0  0  0  0  0  0  0  0
   -5.3315    7.3693   -2.1947 O   0  0  0  0  0  0  0  0  0  0  0  0
   -6.4894    7.8274   -1.5227 C   0  0  0  0  0  0  0  0  0  0  0  0
   -3.9350    5.6449   -2.9399 C   0  0  0  0  0  0  0  0  0  0  0  0
   -3.6037    4.2989   -3.0430 C   0  0  0  0  0  0  0  0  0  0  0  0
   -9.0887   -3.4273   -4.9442 H   0  0  0  0  0  0  0  0  0  0  0  0
   -8.1117   -1.9456   -4.6670 H   0  0  0  0  0  0  0  0  0  0  0  0
   -7.4867   -3.2465   -5.7365 H   0  0  0  0  0  0  0  0  0  0  0  0
   -8.1584   -3.8221   -2.8511 H   0  0  0  0  0  0  0  0  0  0  0  0
   -7.0035   -4.6557   -3.9761 H   0  0  0  0  0  0  0  0  0  0  0  0
   -5.5020   -2.7675   -3.8884 H   0  0  0  0  0  0  0  0  0  0  0  0
   -6.6713   -1.8814   -2.8171 H   0  0  0  0  0  0  0  0  0  0  0  0
   -6.4059   -3.5128   -1.0970 H   0  0  0  0  0  0  0  0  0  0  0  0
   -5.3062   -4.4850   -2.1901 H   0  0  0  0  0  0  0  0  0  0  0  0
   -3.5809   -2.8859   -2.0484 H   0  0  0  0  0  0  0  0  0  0  0  0
   -5.0286   -3.4790    0.5362 H   0  0  0  0  0  0  0  0  0  0  0  0
   -3.4628   -4.1529   -0.1542 H   0  0  0  0  0  0  0  0  0  0  0  0
   -3.5186   -1.2943    0.5724 H   0  0  0  0  0  0  0  0  0  0  0  0
   -3.5297   -2.4953    1.9081 H   0  0  0  0  0  0  0  0  0  0  0  0
   -2.2145   -2.5244    0.6850 H   0  0  0  0  0  0  0  0  0  0  0  0
   -5.4095    1.1326   -1.2224 H   0  0  0  0  0  0  0  0  0  0  0  0
   -3.1979    1.6645   -3.2926 H   0  0  0  0  0  0  0  0  0  0  0  0
   -6.1798    2.9728   -1.3259 H   0  0  0  0  0  0  0  0  0  0  0  0
   -6.7689    5.3771   -1.1450 H   0  0  0  0  0  0  0  0  0  0  0  0
   -7.2435    8.1371   -2.2613 H   0  0  0  0  0  0  0  0  0  0  0  0
   -6.8969    7.0171   -0.9003 H   0  0  0  0  0  0  0  0  0  0  0  0
   -6.2281    8.6842   -0.8842 H   0  0  0  0  0  0  0  0  0  0  0  0
   -3.2876    6.4040   -3.4034 H   0  0  0  0  0  0  0  0  0  0  0  0
   -2.6986    3.9995   -3.5917 H   0  0  0  0  0  0  0  0  0  0  0  0
  2  1  1  0
  3  2  1  0
  4  3  1  0
  5  4  1  0
  6  5  1  0
  7  6  1  0
  8  5  1  0
  9  8  1  0
 10  9  2  0
 11  9  1  0
 12 11  2  3
 13 12  1  0
 14 13  1  0
 15 14  2  0
 16 15  1  0
 17 16  1  0
 18 17  1  0
 19 16  2  0
 20 19  1  0
 20 13  2  0
  1 21  1  0
  1 22  1  0
  1 23  1  0
  2 24  1  0
  2 25  1  0
  3 26  1  0
  3 27  1  0
  4 28  1  0
  4 29  1  0
  5 30  1  6
  6 31  1  0
  6 32  1  0
  7 33  1  0
  7 34  1  0
  7 35  1  0
 11 36  1  0
 12 37  1  0
 14 38  1  0
 15 39  1  0
 18 40  1  0
 18 41  1  0
 18 42  1  0
 19 43  1  0
 20 44  1  0
M  END
$$$$
