s2_esm2_control_ligand
 OpenBabel10092621053D

 20 20  0  0  1  0  0  0  0  0999 V2000
  -10.3870    2.1620    3.5860 C   0  0  0  0  0  0  0  0  0  0  0  0
  -11.5220    2.0290    3.9590 O   0  0  0  0  0  0  0  0  0  0  0  0
   -9.8610    1.5640    2.3310 C   0  0  0  0  0  3  0  0  0  0  0  0
   -8.6060    1.9070    1.9260 C   0  0  0  0  0  3  0  0  0  0  0  0
   -7.9560    1.3480    0.7230 C   0  0  0  0  0  0  0  0  0  0  0  0
   -6.6840    0.8210    0.8540 C   0  0  0  0  0  3  0  0  0  0  0  0
   -6.0340    0.2690   -0.2330 C   0  0  0  0  0  3  0  0  0  0  0  0
   -6.6400    0.2360   -1.4620 C   0  0  0  0  0  0  0  0  0  0  0  0
   -7.9080    0.7570   -1.5970 C   0  0  0  0  0  3  0  0  0  0  0  0
   -8.5600    1.3140   -0.5040 C   0  0  0  0  0  3  0  0  0  0  0  0
   -5.9610   -0.3180   -2.4940 O   0  0  0  0  0  0  0  0  0  0  0  0
   -5.2750   -1.5500   -2.3100 C   0  0  0  0  0  1  0  0  0  0  0  0
   -9.5060    2.8990    4.2930 O   0  0  0  0  0  0  0  0  0  0  0  0
   -9.8760    4.1960    4.7280 C   0  0  1  0  0  3  0  0  0  0  0  0
   -8.8100    4.7020    5.7000 C   0  0  0  0  0  2  0  0  0  0  0  0
   -8.5510    3.7780    6.8770 C   0  0  0  0  0  1  0  0  0  0  0  0
   -9.9670    5.1240    3.5420 C   0  0  0  0  0  2  0  0  0  0  0  0
   -8.6520    5.3990    2.8820 C   0  0  0  0  0  2  0  0  0  0  0  0
  -10.1700    5.1480    0.9190 C   0  0  0  0  0  1  0  0  0  0  0  0
   -8.7240    5.2400    1.3920 C   0  0  0  0  0  2  0  0  0  0  0  0
  1  2  2  0  0  0  0
  1 13  1  0  0  0  0
  3  1  1  0  0  0  0
  4  3  2  0  0  0  0
  5  6  1  0  0  0  0
  5  4  1  0  0  0  0
  7  6  2  0  0  0  0
  8  7  1  0  0  0  0
  9  8  2  0  0  0  0
  9 10  1  0  0  0  0
 10  5  2  0  0  0  0
 11 12  1  0  0  0  0
 11  8  1  0  0  0  0
 13 14  1  0  0  0  0
 14 17  1  6  0  0  0
 14 15  1  0  0  0  0
 15 16  1  0  0  0  0
 18 17  1  0  0  0  0
 19 20  1  0  0  0  0
 20 18  1  0  0  0  0
M  END
>  <MODEL>
1

>  <REMARK>
 VINA RESULT:      -4.1      0.000      0.000
  Name = s2_esm2_control_ligand
  12 active torsions:
  status: ('A' for Active; 'I' for Inactive)
    1  A    between atoms: C_1  and  C_2
    2  A    between atoms: C_2  and  C_3
    3  A    between atoms: C_3  and  C_4
    4  A    between atoms: C_4  and  C_5
    5  A    between atoms: C_5  and  C_6
    6  A    between atoms: C_5  and  O_8
    7  A    between atoms: C_6  and  C_7
    8  A    between atoms: O_8  and  C_9
    9  A    between atoms: C_9  and  C_11
   10  A    between atoms: C_12  and  C_13
   11  A    between atoms: C_16  and  O_17
   12  A    between atoms: O_17  and  C_18
                            x       y       z     vdW  Elec       q    Type
                         _______ _______ _______ _____ _____    ______ ____

>  <TORSDO>
F 9

$$$$
s2_esm2_control_ligand
 OpenBabel10092621053D

 20 20  0  0  1  0  0  0  0  0999 V2000
   -9.6450    2.2010    3.0750 C   0  0  0  0  0  0  0  0  0  0  0  0
   -9.8080    1.7680    4.1840 O   0  0  0  0  0  0  0  0  0  0  0  0
   -9.1280    1.3860    1.9440 C   0  0  0  0  0  3  0  0  0  0  0  0
   -7.9990    1.8040    1.3060 C   0  0  0  0  0  3  0  0  0  0  0  0
   -7.3650    1.0600    0.2000 C   0  0  0  0  0  0  0  0  0  0  0  0
   -8.0730    0.9130   -0.9790 C   0  0  0  0  0  3  0  0  0  0  0  0
   -7.5230    0.2410   -2.0540 C   0  0  0  0  0  3  0  0  0  0  0  0
   -6.2640   -0.2950   -1.9680 C   0  0  0  0  0  0  0  0  0  0  0  0
   -5.5540   -0.1500   -0.7980 C   0  0  0  0  0  3  0  0  0  0  0  0
   -6.1080    0.5250    0.2830 C   0  0  0  0  0  3  0  0  0  0  0  0
   -5.7720   -0.9410   -3.0510 O   0  0  0  0  0  0  0  0  0  0  0  0
   -5.2430   -2.2540   -2.9120 C   0  0  0  0  0  1  0  0  0  0  0  0
   -9.9500    3.4810    2.7770 O   0  0  0  0  0  0  0  0  0  0  0  0
   -9.0750    4.5170    3.1860 C   0  0  1  0  0  3  0  0  0  0  0  0
   -8.5050    5.1910    1.9390 C   0  0  0  0  0  2  0  0  0  0  0  0
   -9.4880    5.3020    0.7870 C   0  0  0  0  0  1  0  0  0  0  0  0
   -9.8350    5.5270    4.0110 C   0  0  0  0  0  2  0  0  0  0  0  0
   -9.8010    5.2590    5.4840 C   0  0  0  0  0  2  0  0  0  0  0  0
   -7.5550    5.5630    6.5240 C   0  0  0  0  0  1  0  0  0  0  0  0
   -8.5350    4.5740    5.9040 C   0  0  0  0  0  2  0  0  0  0  0  0
  1  2  2  0  0  0  0
  3  1  1  0  0  0  0
  4  3  2  0  0  0  0
  5 10  1  0  0  0  0
  5  4  1  0  0  0  0
  6  5  2  0  0  0  0
  7  8  2  0  0  0  0
  7  6  1  0  0  0  0
  8  9  1  0  0  0  0
  9 10  2  0  0  0  0
 11 12  1  0  0  0  0
 11  8  1  0  0  0  0
 13  1  1  0  0  0  0
 13 14  1  0  0  0  0
 14 15  1  6  0  0  0
 14 17  1  0  0  0  0
 16 15  1  0  0  0  0
 17 18  1  0  0  0  0
 18 20  1  0  0  0  0
 20 19  1  0  0  0  0
M  END
>  <MODEL>
2

>  <REMARK>
 VINA RESULT:      -3.9      0.949      2.845
  Name = s2_esm2_control_ligand
  12 active torsions:
  status: ('A' for Active; 'I' for Inactive)
    1  A    between atoms: C_1  and  C_2
    2  A    between atoms: C_2  and  C_3
    3  A    between atoms: C_3  and  C_4
    4  A    between atoms: C_4  and  C_5
    5  A    between atoms: C_5  and  C_6
    6  A    between atoms: C_5  and  O_8
    7  A    between atoms: C_6  and  C_7
    8  A    between atoms: O_8  and  C_9
    9  A    between atoms: C_9  and  C_11
   10  A    between atoms: C_12  and  C_13
   11  A    between atoms: C_16  and  O_17
   12  A    between atoms: O_17  and  C_18
                            x       y       z     vdW  Elec       q    Type
                         _______ _______ _______ _____ _____    ______ ____

>  <TORSDO>
F 9

$$$$
s2_esm2_control_ligand
 OpenBabel10092621053D

 20 20  0  0  1  0  0  0  0  0999 V2000
   -2.6590   -4.7860    3.1060 C   0  0  0  0  0  0  0  0  0  0  0  0
   -1.8520   -5.6750    3.0620 O   0  0  0  0  0  0  0  0  0  0  0  0
   -2.3580   -3.4300    3.6350 C   0  0  0  0  0  3  0  0  0  0  0  0
   -2.4370   -3.2250    4.9800 C   0  0  0  0  0  3  0  0  0  0  0  0
   -2.1200   -1.9380    5.6280 C   0  0  0  0  0  0  0  0  0  0  0  0
   -0.9220   -1.3240    5.3100 C   0  0  0  0  0  3  0  0  0  0  0  0
   -0.5800   -0.1090    5.8730 C   0  0  0  0  0  3  0  0  0  0  0  0
   -1.4240    0.5080    6.7600 C   0  0  0  0  0  0  0  0  0  0  0  0
   -2.6190   -0.0980    7.0780 C   0  0  0  0  0  3  0  0  0  0  0  0
   -2.9610   -1.3200    6.5130 C   0  0  0  0  0  3  0  0  0  0  0  0
   -1.0420    1.6980    7.2800 O   0  0  0  0  0  0  0  0  0  0  0  0
   -0.7750    2.7960    6.4170 C   0  0  0  0  0  1  0  0  0  0  0  0
   -3.9140   -4.9640    2.6450 O   0  0  0  0  0  0  0  0  0  0  0  0
   -4.4720   -4.0100    1.7590 C   0  0  1  0  0  3  0  0  0  0  0  0
   -3.8790   -4.2350    0.3690 C   0  0  0  0  0  2  0  0  0  0  0  0
   -3.8770   -3.0010   -0.5160 C   0  0  0  0  0  1  0  0  0  0  0  0
   -5.9710   -4.1780    1.7090 C   0  0  0  0  0  2  0  0  0  0  0  0
   -6.7300   -3.0660    2.3660 C   0  0  0  0  0  2  0  0  0  0  0  0
   -6.0180   -1.8380    4.4160 C   0  0  0  0  0  1  0  0  0  0  0  0
   -5.8200   -2.0080    2.9140 C   0  0  0  0  0  2  0  0  0  0  0  0
  1  3  1  0  0  0  0
  2  1  2  0  0  0  0
  3  4  2  0  0  0  0
  4  5  1  0  0  0  0
  5 10  1  0  0  0  0
  6  5  2  0  0  0  0
  6  7  1  0  0  0  0
  7  8  2  0  0  0  0
  8  9  1  0  0  0  0
  8 11  1  0  0  0  0
 10  9  2  0  0  0  0
 12 11  1  0  0  0  0
 13  1  1  0  0  0  0
 14 15  1  6  0  0  0
 14 13  1  0  0  0  0
 16 15  1  0  0  0  0
 17 14  1  0  0  0  0
 17 18  1  0  0  0  0
 18 20  1  0  0  0  0
 20 19  1  0  0  0  0
M  END
>  <MODEL>
3

>  <REMARK>
 VINA RESULT:      -3.9      6.634      9.790
  Name = s2_esm2_control_ligand
  12 active torsions:
  status: ('A' for Active; 'I' for Inactive)
    1  A    between atoms: C_1  and  C_2
    2  A    between atoms: C_2  and  C_3
    3  A    between atoms: C_3  and  C_4
    4  A    between atoms: C_4  and  C_5
    5  A    between atoms: C_5  and  C_6
    6  A    between atoms: C_5  and  O_8
    7  A    between atoms: C_6  and  C_7
    8  A    between atoms: O_8  and  C_9
    9  A    between atoms: C_9  and  C_11
   10  A    between atoms: C_12  and  C_13
   11  A    between atoms: C_16  and  O_17
   12  A    between atoms: O_17  and  C_18
                            x       y       z     vdW  Elec       q    Type
                         _______ _______ _______ _____ _____    ______ ____

>  <TORSDO>
F 9

$$$$
s2_esm2_control_ligand
 OpenBabel10092621053D

 20 20  0  0  1  0  0  0  0  0999 V2000
   -1.0020    0.2690    5.6750 C   0  0  0  0  0  0  0  0  0  0  0  0
   -1.1670    1.1260    4.8480 O   0  0  0  0  0  0  0  0  0  0  0  0
   -1.0210   -1.1840    5.3650 C   0  0  0  0  0  3  0  0  0  0  0  0
   -2.2280   -1.8060    5.2430 C   0  0  0  0  0  3  0  0  0  0  0  0
   -2.3780   -3.2330    4.8960 C   0  0  0  0  0  0  0  0  0  0  0  0
   -2.2550   -3.5970    3.5670 C   0  0  0  0  0  3  0  0  0  0  0  0
   -2.3690   -4.9210    3.1850 C   0  0  0  0  0  3  0  0  0  0  0  0
   -2.6080   -5.8960    4.1190 C   0  0  0  0  0  0  0  0  0  0  0  0
   -2.7280   -5.5380    5.4430 C   0  0  0  0  0  3  0  0  0  0  0  0
   -2.6150   -4.2080    5.8270 C   0  0  0  0  0  3  0  0  0  0  0  0
   -2.7080   -7.1760    3.6920 O   0  0  0  0  0  0  0  0  0  0  0  0
   -1.8410   -8.1700    4.2230 C   0  0  0  0  0  1  0  0  0  0  0  0
   -0.7620    0.5850    6.9640 O   0  0  0  0  0  0  0  0  0  0  0  0
   -1.7170    1.3450    7.6830 C   0  0  1  0  0  3  0  0  0  0  0  0
   -2.5730    0.3880    8.5110 C   0  0  0  0  0  2  0  0  0  0  0  0
   -1.7790   -0.6660    9.2630 C   0  0  0  0  0  1  0  0  0  0  0  0
   -1.0100    2.3180    8.5950 C   0  0  0  0  0  2  0  0  0  0  0  0
   -1.2430    3.7560    8.2470 C   0  0  0  0  0  2  0  0  0  0  0  0
   -1.2220    5.4300    6.3990 C   0  0  0  0  0  1  0  0  0  0  0  0
   -0.6430    4.1210    6.9210 C   0  0  0  0  0  2  0  0  0  0  0  0
  1 13  1  0  0  0  0
  2  1  2  0  0  0  0
  3  1  1  0  0  0  0
  4  3  2  0  0  0  0
  5  4  1  0  0  0  0
  5 10  1  0  0  0  0
  6  5  2  0  0  0  0
  7  6  1  0  0  0  0
  7  8  2  0  0  0  0
  8  9  1  0  0  0  0
  9 10  2  0  0  0  0
 11  8  1  0  0  0  0
 11 12  1  0  0  0  0
 13 14  1  0  0  0  0
 14 15  1  1  0  0  0
 14 17  1  0  0  0  0
 15 16  1  0  0  0  0
 18 17  1  0  0  0  0
 19 20  1  0  0  0  0
 20 18  1  0  0  0  0
M  END
>  <MODEL>
4

>  <REMARK>
 VINA RESULT:      -3.8      8.482      9.356
  Name = s2_esm2_control_ligand
  12 active torsions:
  status: ('A' for Active; 'I' for Inactive)
    1  A    between atoms: C_1  and  C_2
    2  A    between atoms: C_2  and  C_3
    3  A    between atoms: C_3  and  C_4
    4  A    between atoms: C_4  and  C_5
    5  A    between atoms: C_5  and  C_6
    6  A    between atoms: C_5  and  O_8
    7  A    between atoms: C_6  and  C_7
    8  A    between atoms: O_8  and  C_9
    9  A    between atoms: C_9  and  C_11
   10  A    between atoms: C_12  and  C_13
   11  A    between atoms: C_16  and  O_17
   12  A    between atoms: O_17  and  C_18
                            x       y       z     vdW  Elec       q    Type
                         _______ _______ _______ _____ _____    ______ ____

>  <TORSDO>
F 9

$$$$
s2_esm2_control_ligand
 OpenBabel10092621053D

 20 20  0  0  1  0  0  0  0  0999 V2000
   -2.7310   -4.9430    3.8990 C   0  0  0  0  0  0  0  0  0  0  0  0
   -2.2750   -6.0010    4.2390 O   0  0  0  0  0  0  0  0  0  0  0  0
   -2.8390   -4.5130    2.4810 C   0  0  0  0  0  3  0  0  0  0  0  0
   -3.9670   -4.8360    1.7880 C   0  0  0  0  0  3  0  0  0  0  0  0
   -4.2090   -4.4290    0.3900 C   0  0  0  0  0  0  0  0  0  0  0  0
   -5.2020   -5.0820   -0.3170 C   0  0  0  0  0  3  0  0  0  0  0  0
   -5.4840   -4.7320   -1.6240 C   0  0  0  0  0  3  0  0  0  0  0  0
   -4.7830   -3.7290   -2.2420 C   0  0  0  0  0  0  0  0  0  0  0  0
   -3.7960   -3.0740   -1.5410 C   0  0  0  0  0  3  0  0  0  0  0  0
   -3.5100   -3.4280   -0.2290 C   0  0  0  0  0  3  0  0  0  0  0  0
   -5.1020   -3.4240   -3.5220 O   0  0  0  0  0  0  0  0  0  0  0  0
   -6.4190   -3.6630   -4.0010 C   0  0  0  0  0  1  0  0  0  0  0  0
   -3.2060   -4.0680    4.8090 O   0  0  0  0  0  0  0  0  0  0  0  0
   -2.9730   -2.6820    4.6280 C   0  0  1  0  0  3  0  0  0  0  0  0
   -3.9960   -1.9070    5.4580 C   0  0  0  0  0  2  0  0  0  0  0  0
   -5.3840   -1.8520    4.8440 C   0  0  0  0  0  1  0  0  0  0  0  0
   -1.5770   -2.3360    5.0840 C   0  0  0  0  0  2  0  0  0  0  0  0
   -1.5090   -1.1410    5.9840 C   0  0  0  0  0  2  0  0  0  0  0  0
   -1.2370    1.2910    5.5060 C   0  0  0  0  0  1  0  0  0  0  0  0
   -0.5860   -0.0860    5.4520 C   0  0  0  0  0  2  0  0  0  0  0  0
  1  2  2  0  0  0  0
  1 13  1  0  0  0  0
  3  1  1  0  0  0  0
  4  3  2  0  0  0  0
  5  4  1  0  0  0  0
  6  5  2  0  0  0  0
  7  6  1  0  0  0  0
  8  7  2  0  0  0  0
  8  9  1  0  0  0  0
  9 10  2  0  0  0  0
 10  5  1  0  0  0  0
 11  8  1  0  0  0  0
 12 11  1  0  0  0  0
 14 13  1  0  0  0  0
 14 17  1  1  0  0  0
 14 15  1  0  0  0  0
 16 15  1  0  0  0  0
 17 18  1  0  0  0  0
 20 19  1  0  0  0  0
 20 18  1  0  0  0  0
M  END
>  <MODEL>
5

>  <REMARK>
 VINA RESULT:      -3.8      6.883      8.367
  Name = s2_esm2_control_ligand
  12 active torsions:
  status: ('A' for Active; 'I' for Inactive)
    1  A    between atoms: C_1  and  C_2
    2  A    between atoms: C_2  and  C_3
    3  A    between atoms: C_3  and  C_4
    4  A    between atoms: C_4  and  C_5
    5  A    between atoms: C_5  and  C_6
    6  A    between atoms: C_5  and  O_8
    7  A    between atoms: C_6  and  C_7
    8  A    between atoms: O_8  and  C_9
    9  A    between atoms: C_9  and  C_11
   10  A    between atoms: C_12  and  C_13
   11  A    between atoms: C_16  and  O_17
   12  A    between atoms: O_17  and  C_18
                            x       y       z     vdW  Elec       q    Type
                         _______ _______ _______ _____ _____    ______ ____

>  <TORSDO>
F 9

$$$$
s2_esm2_control_ligand
 OpenBabel10092621053D

 20 20  0  0  1  0  0  0  0  0999 V2000
   -4.7450   -2.5880   -1.4380 C   0  0  0  0  0  0  0  0  0  0  0  0
   -4.3590   -2.8930   -2.5340 O   0  0  0  0  0  0  0  0  0  0  0  0
   -4.1620   -3.1270   -0.1820 C   0  0  0  0  0  3  0  0  0  0  0  0
   -4.4980   -4.3910    0.2000 C   0  0  0  0  0  3  0  0  0  0  0  0
   -3.9500   -5.0520    1.4010 C   0  0  0  0  0  0  0  0  0  0  0  0
   -2.8080   -4.5230    1.9730 C   0  0  0  0  0  3  0  0  0  0  0  0
   -2.2600   -5.0900    3.1090 C   0  0  0  0  0  3  0  0  0  0  0  0
   -2.8410   -6.1890    3.6860 C   0  0  0  0  0  0  0  0  0  0  0  0
   -3.9800   -6.7180    3.1220 C   0  0  0  0  0  3  0  0  0  0  0  0
   -4.5300   -6.1490    1.9800 C   0  0  0  0  0  3  0  0  0  0  0  0
   -2.2670   -6.7040    4.7990 O   0  0  0  0  0  0  0  0  0  0  0  0
   -1.5920   -7.9530    4.7350 C   0  0  0  0  0  1  0  0  0  0  0  0
   -5.7470   -1.6980   -1.2780 O   0  0  0  0  0  0  0  0  0  0  0  0
   -5.9840   -1.1420    0.0040 C   0  0  1  0  0  3  0  0  0  0  0  0
   -5.9200    0.3810   -0.1100 C   0  0  0  0  0  2  0  0  0  0  0  0
   -6.7160    1.1190    0.9520 C   0  0  0  0  0  1  0  0  0  0  0  0
   -7.3480   -1.5610    0.4940 C   0  0  0  0  0  2  0  0  0  0  0  0
   -7.3130   -2.5490    1.6190 C   0  0  0  0  0  2  0  0  0  0  0  0
   -5.5890   -2.3880    3.4140 C   0  0  0  0  0  1  0  0  0  0  0  0
   -6.9500   -1.9050    2.9250 C   0  0  0  0  0  2  0  0  0  0  0  0
  1 13  1  0  0  0  0
  1  3  1  0  0  0  0
  2  1  2  0  0  0  0
  3  4  2  0  0  0  0
  4  5  1  0  0  0  0
  5  6  2  0  0  0  0
  5 10  1  0  0  0  0
  6  7  1  0  0  0  0
  7  8  2  0  0  0  0
  8 11  1  0  0  0  0
  9  8  1  0  0  0  0
 10  9  2  0  0  0  0
 12 11  1  0  0  0  0
 13 14  1  0  0  0  0
 14 15  1  6  0  0  0
 14 17  1  0  0  0  0
 15 16  1  0  0  0  0
 17 18  1  0  0  0  0
 18 20  1  0  0  0  0
 20 19  1  0  0  0  0
M  END
>  <MODEL>
6

>  <REMARK>
 VINA RESULT:      -3.7      5.353      8.504
  Name = s2_esm2_control_ligand
  12 active torsions:
  status: ('A' for Active; 'I' for Inactive)
    1  A    between atoms: C_1  and  C_2
    2  A    between atoms: C_2  and  C_3
    3  A    between atoms: C_3  and  C_4
    4  A    between atoms: C_4  and  C_5
    5  A    between atoms: C_5  and  C_6
    6  A    between atoms: C_5  and  O_8
    7  A    between atoms: C_6  and  C_7
    8  A    between atoms: O_8  and  C_9
    9  A    between atoms: C_9  and  C_11
   10  A    between atoms: C_12  and  C_13
   11  A    between atoms: C_16  and  O_17
   12  A    between atoms: O_17  and  C_18
                            x       y       z     vdW  Elec       q    Type
                         _______ _______ _______ _____ _____    ______ ____

>  <TORSDO>
F 9

$$$$
s2_esm2_control_ligand
 OpenBabel10092621053D

 20 20  0  0  1  0  0  0  0  0999 V2000
   -5.2680   -3.1590    4.8040 C   0  0  0  0  0  0  0  0  0  0  0  0
   -5.8400   -4.2140    4.8530 O   0  0  0  0  0  0  0  0  0  0  0  0
   -5.8780   -1.9200    4.2550 C   0  0  0  0  0  3  0  0  0  0  0  0
   -6.2530   -1.9060    2.9450 C   0  0  0  0  0  3  0  0  0  0  0  0
   -6.9080   -0.7530    2.2960 C   0  0  0  0  0  0  0  0  0  0  0  0
   -8.1470   -0.3570    2.7660 C   0  0  0  0  0  3  0  0  0  0  0  0
   -8.8000    0.7260    2.2080 C   0  0  0  0  0  3  0  0  0  0  0  0
   -8.2290    1.4270    1.1780 C   0  0  0  0  0  0  0  0  0  0  0  0
   -6.9940    1.0380    0.7090 C   0  0  0  0  0  3  0  0  0  0  0  0
   -6.3380   -0.0520    1.2680 C   0  0  0  0  0  3  0  0  0  0  0  0
   -8.9080    2.4810    0.6700 O   0  0  0  0  0  0  0  0  0  0  0  0
   -9.1730    3.6140    1.4880 C   0  0  0  0  0  1  0  0  0  0  0  0
   -4.0120   -3.0280    5.2770 O   0  0  0  0  0  0  0  0  0  0  0  0
   -2.9250   -3.0070    4.3670 C   0  0  1  0  0  3  0  0  0  0  0  0
   -1.7610   -2.2650    5.0210 C   0  0  0  0  0  2  0  0  0  0  0  0
   -2.1810   -1.1210    5.9270 C   0  0  0  0  0  1  0  0  0  0  0  0
   -2.5110   -4.4200    4.0380 C   0  0  0  0  0  2  0  0  0  0  0  0
   -2.3500   -4.6810    2.5720 C   0  0  0  0  0  2  0  0  0  0  0  0
   -3.6740   -3.8760    0.6180 C   0  0  0  0  0  1  0  0  0  0  0  0
   -3.6700   -4.7550    1.8630 C   0  0  0  0  0  2  0  0  0  0  0  0
  1  2  2  0  0  0  0
  1 13  1  0  0  0  0
  3  1  1  0  0  0  0
  4  3  2  0  0  0  0
  5  6  1  0  0  0  0
  5  4  1  0  0  0  0
  7  6  2  0  0  0  0
  8  7  1  0  0  0  0
  9  8  2  0  0  0  0
  9 10  1  0  0  0  0
 10  5  2  0  0  0  0
 11  8  1  0  0  0  0
 11 12  1  0  0  0  0
 14 17  1  1  0  0  0
 14 15  1  0  0  0  0
 14 13  1  0  0  0  0
 15 16  1  0  0  0  0
 18 17  1  0  0  0  0
 19 20  1  0  0  0  0
 20 18  1  0  0  0  0
M  END
>  <MODEL>
7

>  <REMARK>
 VINA RESULT:      -3.7      5.048      7.708
  Name = s2_esm2_control_ligand
  12 active torsions:
  status: ('A' for Active; 'I' for Inactive)
    1  A    between atoms: C_1  and  C_2
    2  A    between atoms: C_2  and  C_3
    3  A    between atoms: C_3  and  C_4
    4  A    between atoms: C_4  and  C_5
    5  A    between atoms: C_5  and  C_6
    6  A    between atoms: C_5  and  O_8
    7  A    between atoms: C_6  and  C_7
    8  A    between atoms: O_8  and  C_9
    9  A    between atoms: C_9  and  C_11
   10  A    between atoms: C_12  and  C_13
   11  A    between atoms: C_16  and  O_17
   12  A    between atoms: O_17  and  C_18
                            x       y       z     vdW  Elec       q    Type
                         _______ _______ _______ _____ _____    ______ ____

>  <TORSDO>
F 9

$$$$
s2_esm2_control_ligand
 OpenBabel10092621053D

 20 20  0  0  1  0  0  0  0  0999 V2000
   -7.1090   -3.4160    0.0670 C   0  0  0  0  0  0  0  0  0  0  0  0
   -8.0170   -4.1790    0.2600 O   0  0  0  0  0  0  0  0  0  0  0  0
   -6.2150   -2.9150    1.1430 C   0  0  0  0  0  3  0  0  0  0  0  0
   -5.4870   -3.8190    1.8560 C   0  0  0  0  0  3  0  0  0  0  0  0
   -4.5340   -3.4420    2.9190 C   0  0  0  0  0  0  0  0  0  0  0  0
   -3.2030   -3.7820    2.7520 C   0  0  0  0  0  3  0  0  0  0  0  0
   -2.2630   -3.4400    3.7050 C   0  0  0  0  0  3  0  0  0  0  0  0
   -2.6350   -2.7580    4.8350 C   0  0  0  0  0  0  0  0  0  0  0  0
   -3.9570   -2.4150    5.0040 C   0  0  0  0  0  3  0  0  0  0  0  0
   -4.9030   -2.7600    4.0460 C   0  0  0  0  0  3  0  0  0  0  0  0
   -1.6740   -2.4440    5.7350 O   0  0  0  0  0  0  0  0  0  0  0  0
   -0.8700   -1.2870    5.5410 C   0  0  0  0  0  1  0  0  0  0  0  0
   -6.8270   -2.9740   -1.1760 O   0  0  0  0  0  0  0  0  0  0  0  0
   -5.7090   -2.1260   -1.3750 C   0  0  1  0  0  3  0  0  0  0  0  0
   -4.6270   -2.9160   -2.1100 C   0  0  0  0  0  2  0  0  0  0  0  0
   -3.3790   -3.1770   -1.2860 C   0  0  0  0  0  1  0  0  0  0  0  0
   -6.1190   -0.9310   -2.2000 C   0  0  0  0  0  2  0  0  0  0  0  0
   -6.6620    0.2080   -1.3930 C   0  0  0  0  0  2  0  0  0  0  0  0
   -6.7230    0.9340    0.9920 C   0  0  0  0  0  1  0  0  0  0  0  0
   -5.8440    0.4690   -0.1630 C   0  0  0  0  0  2  0  0  0  0  0  0
  1  2  2  0  0  0  0
  1  3  1  0  0  0  0
  3  4  2  0  0  0  0
  4  5  1  0  0  0  0
  5 10  1  0  0  0  0
  6  5  2  0  0  0  0
  6  7  1  0  0  0  0
  7  8  2  0  0  0  0
  8  9  1  0  0  0  0
  8 11  1  0  0  0  0
 10  9  2  0  0  0  0
 12 11  1  0  0  0  0
 13  1  1  0  0  0  0
 14 17  1  6  0  0  0
 14 13  1  0  0  0  0
 15 14  1  0  0  0  0
 15 16  1  0  0  0  0
 17 18  1  0  0  0  0
 18 20  1  0  0  0  0
 20 19  1  0  0  0  0
M  END
>  <MODEL>
8

>  <REMARK>
 VINA RESULT:      -3.7      4.766      8.103
  Name = s2_esm2_control_ligand
  12 active torsions:
  status: ('A' for Active; 'I' for Inactive)
    1  A    between atoms: C_1  and  C_2
    2  A    between atoms: C_2  and  C_3
    3  A    between atoms: C_3  and  C_4
    4  A    between atoms: C_4  and  C_5
    5  A    between atoms: C_5  and  C_6
    6  A    between atoms: C_5  and  O_8
    7  A    between atoms: C_6  and  C_7
    8  A    between atoms: O_8  and  C_9
    9  A    between atoms: C_9  and  C_11
   10  A    between atoms: C_12  and  C_13
   11  A    between atoms: C_16  and  O_17
   12  A    between atoms: O_17  and  C_18
                            x       y       z     vdW  Elec       q    Type
                         _______ _______ _______ _____ _____    ______ ____

>  <TORSDO>
F 9

$$$$
s2_esm2_control_ligand
 OpenBabel10092621053D

 20 20  0  0  1  0  0  0  0  0999 V2000
   -4.1780   -3.0810   -1.7670 C   0  0  0  0  0  0  0  0  0  0  0  0
   -3.7320   -3.4030   -2.8350 O   0  0  0  0  0  0  0  0  0  0  0  0
   -3.5380   -3.4290   -0.4710 C   0  0  0  0  0  3  0  0  0  0  0  0
   -4.3240   -3.5150    0.6390 C   0  0  0  0  0  3  0  0  0  0  0  0
   -3.8140   -3.8940    1.9710 C   0  0  0  0  0  0  0  0  0  0  0  0
   -4.4290   -3.3500    3.0840 C   0  0  0  0  0  3  0  0  0  0  0  0
   -4.0050   -3.6820    4.3570 C   0  0  0  0  0  3  0  0  0  0  0  0
   -2.9650   -4.5570    4.5380 C   0  0  0  0  0  0  0  0  0  0  0  0
   -2.3520   -5.1030    3.4330 C   0  0  0  0  0  3  0  0  0  0  0  0
   -2.7770   -4.7680    2.1530 C   0  0  0  0  0  3  0  0  0  0  0  0
   -2.5920   -4.8500    5.8050 O   0  0  0  0  0  0  0  0  0  0  0  0
   -2.6970   -6.1850    6.2840 C   0  0  0  0  0  1  0  0  0  0  0  0
   -5.3070   -2.3470   -1.6790 O   0  0  0  0  0  0  0  0  0  0  0  0
   -5.3490   -1.0630   -2.2750 C   0  0  1  0  0  3  0  0  0  0  0  0
   -6.6430   -0.9450   -3.0780 C   0  0  0  0  0  2  0  0  0  0  0  0
   -7.0800    0.4840   -3.3500 C   0  0  0  0  0  1  0  0  0  0  0  0
   -5.3150   -0.0030   -1.2020 C   0  0  0  0  0  2  0  0  0  0  0  0
   -6.0600   -0.3740    0.0440 C   0  0  0  0  0  2  0  0  0  0  0  0
   -7.7160    1.3180    0.8260 C   0  0  0  0  0  1  0  0  0  0  0  0
   -6.2840    0.8070    0.9410 C   0  0  0  0  0  2  0  0  0  0  0  0
  1 13  1  0  0  0  0
  1  3  1  0  0  0  0
  2  1  2  0  0  0  0
  3  4  2  0  0  0  0
  4  5  1  0  0  0  0
  5 10  2  0  0  0  0
  5  6  1  0  0  0  0
  6  7  2  0  0  0  0
  7  8  1  0  0  0  0
  8 11  1  0  0  0  0
  9  8  2  0  0  0  0
 10  9  1  0  0  0  0
 11 12  1  0  0  0  0
 14 15  1  1  0  0  0
 14 13  1  0  0  0  0
 14 17  1  0  0  0  0
 16 15  1  0  0  0  0
 17 18  1  0  0  0  0
 18 20  1  0  0  0  0
 19 20  1  0  0  0  0
M  END
>  <MODEL>
9

>  <REMARK>
 VINA RESULT:      -3.7      4.949      8.617
  Name = s2_esm2_control_ligand
  12 active torsions:
  status: ('A' for Active; 'I' for Inactive)
    1  A    between atoms: C_1  and  C_2
    2  A    between atoms: C_2  and  C_3
    3  A    between atoms: C_3  and  C_4
    4  A    between atoms: C_4  and  C_5
    5  A    between atoms: C_5  and  C_6
    6  A    between atoms: C_5  and  O_8
    7  A    between atoms: C_6  and  C_7
    8  A    between atoms: O_8  and  C_9
    9  A    between atoms: C_9  and  C_11
   10  A    between atoms: C_12  and  C_13
   11  A    between atoms: C_16  and  O_17
   12  A    between atoms: O_17  and  C_18
                            x       y       z     vdW  Elec       q    Type
                         _______ _______ _______ _____ _____    ______ ____

>  <TORSDO>
F 9

$$$$
