shuffle_control_ligand
 OpenBabel10092621093D

 20 20  0  0  1  0  0  0  0  0999 V2000
   11.5940    6.9250   -1.3170 C   0  0  0  0  0  0  0  0  0  0  0  0
   12.2880    7.7260   -0.7490 O   0  0  0  0  0  0  0  0  0  0  0  0
   11.9420    5.4950   -1.4980 C   0  0  0  0  0  3  0  0  0  0  0  0
   11.2990    4.5440   -0.8150 C   0  0  0  0  0  3  0  0  0  0  0  0
   11.6070    3.0970   -0.9200 C   0  0  0  0  0  0  0  0  0  0  0  0
   12.6780    2.6230   -1.6310 C   0  0  0  0  0  3  0  0  0  0  0  0
   12.9320    1.2580   -1.7030 C   0  0  0  0  0  3  0  0  0  0  0  0
   12.1140    0.3640   -1.0630 C   0  0  0  0  0  0  0  0  0  0  0  0
   11.0380    0.8340   -0.3510 C   0  0  0  0  0  3  0  0  0  0  0  0
   10.7810    2.1980   -0.2800 C   0  0  0  0  0  3  0  0  0  0  0  0
   12.3140   -0.9860   -1.0890 O   0  0  0  0  0  0  0  0  0  0  0  0
   12.0710   -1.7600    0.0690 C   0  0  0  0  0  1  0  0  0  0  0  0
   10.4180    7.2680   -1.8530 O   0  0  0  0  0  0  0  0  0  0  0  0
    9.5200    8.0900   -1.1360 C   0  0  1  0  0  3  0  0  0  0  0  0
    8.4090    8.5710   -2.0580 C   0  0  0  0  0  2  0  0  0  0  0  0
    8.5210    8.1170   -3.4730 C   0  0  0  0  0  1  0  0  0  0  0  0
    8.9140    7.2780   -0.0150 C   0  0  0  0  0  2  0  0  0  0  0  0
    7.9360    6.2460   -0.4740 C   0  0  0  0  0  2  0  0  0  0  0  0
    8.7580    5.2570    1.6640 C   0  0  0  0  0  1  0  0  0  0  0  0
    7.8330    5.0930    0.4900 C   0  0  0  0  0  2  0  0  0  0  0  0
  1  2  2  0  0  0  0
  3  1  1  0  0  0  0
  3  4  2  0  0  0  0
  5  4  1  0  0  0  0
  5 10  1  0  0  0  0
  6  5  2  0  0  0  0
  7  6  1  0  0  0  0
  7  8  2  0  0  0  0
  8  9  1  0  0  0  0
  9 10  2  0  0  0  0
 11  8  1  0  0  0  0
 11 12  1  0  0  0  0
 13  1  1  0  0  0  0
 13 14  1  0  0  0  0
 14 15  1  6  0  0  0
 14 17  1  0  0  0  0
 16 15  1  0  0  0  0
 18 17  1  0  0  0  0
 18 20  1  0  0  0  0
 20 19  1  0  0  0  0
M  END
>  <MODEL>
1

>  <REMARK>
 VINA RESULT:      -3.8      0.000      0.000
  Name = shuffle_control_ligand
  12 active torsions:
  status: ('A' for Active; 'I' for Inactive)
    1  A    between atoms: C_1  and  C_2
    2  A    between atoms: C_2  and  C_3
    3  A    between atoms: C_3  and  C_4
    4  A    between atoms: C_4  and  C_5
    5  A    between atoms: C_5  and  C_6
    6  A    between atoms: C_5  and  O_8
    7  A    between atoms: C_6  and  C_7
    8  A    between atoms: O_8  and  C_9
    9  A    between atoms: C_9  and  C_11
   10  A    between atoms: C_12  and  C_13
   11  A    between atoms: C_16  and  O_17
   12  A    between atoms: O_17  and  C_18
                            x       y       z     vdW  Elec       q    Type
                         _______ _______ _______ _____ _____    ______ ____

>  <TORSDO>
F 9

$$$$
shuffle_control_ligand
 OpenBabel10092621093D

 20 20  0  0  1  0  0  0  0  0999 V2000
   11.1390    5.0060   -0.5010 C   0  0  0  0  0  0  0  0  0  0  0  0
   11.9900    5.6790   -1.0200 O   0  0  0  0  0  0  0  0  0  0  0  0
   11.0680    3.5280   -0.5950 C   0  0  0  0  0  3  0  0  0  0  0  0
   10.2140    2.8350    0.1640 C   0  0  0  0  0  3  0  0  0  0  0  0
   10.1040    1.3570    0.1470 C   0  0  0  0  0  0  0  0  0  0  0  0
   10.9370    0.5650   -0.5990 C   0  0  0  0  0  3  0  0  0  0  0  0
   10.8000   -0.8190   -0.5850 C   0  0  0  0  0  3  0  0  0  0  0  0
    9.8270   -1.4130    0.1750 C   0  0  0  0  0  0  0  0  0  0  0  0
    8.9870   -0.6240    0.9220 C   0  0  0  0  0  3  0  0  0  0  0  0
    9.1210    0.7590    0.9070 C   0  0  0  0  0  3  0  0  0  0  0  0
    9.6450   -2.7640    0.2370 O   0  0  0  0  0  0  0  0  0  0  0  0
    8.4790   -3.2960    0.8340 C   0  0  0  0  0  1  0  0  0  0  0  0
   10.1560    5.5500    0.2230 O   0  0  0  0  0  0  0  0  0  0  0  0
    9.7550    6.8860   -0.0070 C   0  0  1  0  0  3  0  0  0  0  0  0
    8.3610    6.9120   -0.6150 C   0  0  0  0  0  2  0  0  0  0  0  0
    7.4790    5.7760   -0.2220 C   0  0  0  0  0  1  0  0  0  0  0  0
    9.7310    7.6160    1.3150 C   0  0  0  0  0  2  0  0  0  0  0  0
   10.1570    6.7780    2.4780 C   0  0  0  0  0  2  0  0  0  0  0  0
    8.5470    5.0700    3.3250 C   0  0  0  0  0  1  0  0  0  0  0  0
    9.0170    6.4960    3.4210 C   0  0  0  0  0  2  0  0  0  0  0  0
  1 13  1  0  0  0  0
  2  1  2  0  0  0  0
  3  1  1  0  0  0  0
  3  4  2  0  0  0  0
  5  4  1  0  0  0  0
  5 10  1  0  0  0  0
  6  7  1  0  0  0  0
  6  5  2  0  0  0  0
  7  8  2  0  0  0  0
  8 11  1  0  0  0  0
  8  9  1  0  0  0  0
 10  9  2  0  0  0  0
 11 12  1  0  0  0  0
 14 15  1  1  0  0  0
 14 13  1  0  0  0  0
 14 17  1  0  0  0  0
 15 16  1  0  0  0  0
 17 18  1  0  0  0  0
 18 20  1  0  0  0  0
 19 20  1  0  0  0  0
M  END
>  <MODEL>
2

>  <REMARK>
 VINA RESULT:      -3.8      2.014      2.825
  Name = shuffle_control_ligand
  12 active torsions:
  status: ('A' for Active; 'I' for Inactive)
    1  A    between atoms: C_1  and  C_2
    2  A    between atoms: C_2  and  C_3
    3  A    between atoms: C_3  and  C_4
    4  A    between atoms: C_4  and  C_5
    5  A    between atoms: C_5  and  C_6
    6  A    between atoms: C_5  and  O_8
    7  A    between atoms: C_6  and  C_7
    8  A    between atoms: O_8  and  C_9
    9  A    between atoms: C_9  and  C_11
   10  A    between atoms: C_12  and  C_13
   11  A    between atoms: C_16  and  O_17
   12  A    between atoms: O_17  and  C_18
                            x       y       z     vdW  Elec       q    Type
                         _______ _______ _______ _____ _____    ______ ____

>  <TORSDO>
F 9

$$$$
shuffle_control_ligand
 OpenBabel10092621093D

 20 20  0  0  1  0  0  0  0  0999 V2000
   10.8890    4.5070   -0.0230 C   0  0  0  0  0  0  0  0  0  0  0  0
   11.9710    4.7990    0.4140 O   0  0  0  0  0  0  0  0  0  0  0  0
   10.4590    3.1240   -0.3370 C   0  0  0  0  0  3  0  0  0  0  0  0
   10.3450    2.2070    0.6280 C   0  0  0  0  0  3  0  0  0  0  0  0
    9.9490    0.7980    0.3900 C   0  0  0  0  0  0  0  0  0  0  0  0
   10.4910    0.0420   -0.6150 C   0  0  0  0  0  3  0  0  0  0  0  0
   10.0920   -1.2770   -0.8030 C   0  0  0  0  0  3  0  0  0  0  0  0
    9.1470   -1.8410    0.0140 C   0  0  0  0  0  0  0  0  0  0  0  0
    8.5990   -1.0860    1.0210 C   0  0  0  0  0  3  0  0  0  0  0  0
    8.9950    0.2330    1.2090 C   0  0  0  0  0  3  0  0  0  0  0  0
    8.7190   -3.1300   -0.1140 O   0  0  0  0  0  0  0  0  0  0  0  0
    7.6640   -3.6100    0.6970 C   0  0  0  0  0  1  0  0  0  0  0  0
    9.9580    5.4330   -0.2720 O   0  0  0  0  0  0  0  0  0  0  0  0
    8.7160    5.3960    0.4010 C   0  0  1  0  0  3  0  0  0  0  0  0
    8.8590    6.0050    1.7880 C   0  0  0  0  0  2  0  0  0  0  0  0
    8.6210    5.0640    2.9190 C   0  0  0  0  0  1  0  0  0  0  0  0
    7.7140    6.2030   -0.3920 C   0  0  0  0  0  2  0  0  0  0  0  0
    8.3340    7.1300   -1.3860 C   0  0  0  0  0  2  0  0  0  0  0  0
    8.0590    9.3890   -2.4090 C   0  0  0  0  0  1  0  0  0  0  0  0
    7.9240    8.5620   -1.1600 C   0  0  0  0  0  2  0  0  0  0  0  0
  1  2  2  0  0  0  0
  3  1  1  0  0  0  0
  3  4  2  0  0  0  0
  5  4  1  0  0  0  0
  5 10  1  0  0  0  0
  6  5  2  0  0  0  0
  7  6  1  0  0  0  0
  7  8  2  0  0  0  0
  8  9  1  0  0  0  0
  9 10  2  0  0  0  0
 11  8  1  0  0  0  0
 11 12  1  0  0  0  0
 13  1  1  0  0  0  0
 13 14  1  0  0  0  0
 14 17  1  6  0  0  0
 14 15  1  0  0  0  0
 15 16  1  0  0  0  0
 18 20  1  0  0  0  0
 18 17  1  0  0  0  0
 19 20  1  0  0  0  0
M  END
>  <MODEL>
3

>  <REMARK>
 VINA RESULT:      -3.8      2.260      3.821
  Name = shuffle_control_ligand
  12 active torsions:
  status: ('A' for Active; 'I' for Inactive)
    1  A    between atoms: C_1  and  C_2
    2  A    between atoms: C_2  and  C_3
    3  A    between atoms: C_3  and  C_4
    4  A    between atoms: C_4  and  C_5
    5  A    between atoms: C_5  and  C_6
    6  A    between atoms: C_5  and  O_8
    7  A    between atoms: C_6  and  C_7
    8  A    between atoms: O_8  and  C_9
    9  A    between atoms: C_9  and  C_11
   10  A    between atoms: C_12  and  C_13
   11  A    between atoms: C_16  and  O_17
   12  A    between atoms: O_17  and  C_18
                            x       y       z     vdW  Elec       q    Type
                         _______ _______ _______ _____ _____    ______ ____

>  <TORSDO>
F 9

$$$$
shuffle_control_ligand
 OpenBabel10092621093D

 20 20  0  0  1  0  0  0  0  0999 V2000
    9.9600    1.7020    1.6480 C   0  0  0  0  0  0  0  0  0  0  0  0
    9.5700    1.4230    2.7500 O   0  0  0  0  0  0  0  0  0  0  0  0
    9.4050    2.7960    0.8150 C   0  0  0  0  0  3  0  0  0  0  0  0
    9.7890    4.0620    1.0050 C   0  0  0  0  0  3  0  0  0  0  0  0
    9.2610    5.2120    0.2340 C   0  0  0  0  0  0  0  0  0  0  0  0
    7.9200    5.4700    0.1250 C   0  0  0  0  0  3  0  0  0  0  0  0
    7.4660    6.5620   -0.6080 C   0  0  0  0  0  3  0  0  0  0  0  0
    8.3540    7.3960   -1.2340 C   0  0  0  0  0  0  0  0  0  0  0  0
    9.6990    7.1410   -1.1300 C   0  0  0  0  0  3  0  0  0  0  0  0
   10.1540    6.0490   -0.4000 C   0  0  0  0  0  3  0  0  0  0  0  0
    7.9730    8.4860   -1.9610 O   0  0  0  0  0  0  0  0  0  0  0  0
    8.2790    8.5610   -3.3400 C   0  0  0  0  0  1  0  0  0  0  0  0
   10.9540    1.0260    1.0610 O   0  0  0  0  0  0  0  0  0  0  0  0
   11.0530    0.9820   -0.3470 C   0  0  1  0  0  3  0  0  0  0  0  0
   12.4060    1.5200   -0.7890 C   0  0  0  0  0  2  0  0  0  0  0  0
   12.3760    2.8770   -1.4060 C   0  0  0  0  0  1  0  0  0  0  0  0
   10.9230   -0.4550   -0.7940 C   0  0  0  0  0  2  0  0  0  0  0  0
    9.5110   -0.9360   -0.8850 C   0  0  0  0  0  2  0  0  0  0  0  0
    8.3500   -1.5850    1.2260 C   0  0  0  0  0  1  0  0  0  0  0  0
    9.2260   -2.0450    0.0930 C   0  0  0  0  0  2  0  0  0  0  0  0
  1  2  2  0  0  0  0
  3  4  2  0  0  0  0
  3  1  1  0  0  0  0
  5  4  1  0  0  0  0
  6  5  1  0  0  0  0
  7  6  2  0  0  0  0
  8  9  2  0  0  0  0
  8  7  1  0  0  0  0
  9 10  1  0  0  0  0
 10  5  2  0  0  0  0
 11  8  1  0  0  0  0
 12 11  1  0  0  0  0
 13  1  1  0  0  0  0
 14 17  1  1  0  0  0
 14 13  1  0  0  0  0
 15 14  1  0  0  0  0
 16 15  1  0  0  0  0
 18 17  1  0  0  0  0
 18 20  1  0  0  0  0
 20 19  1  0  0  0  0
M  END
>  <MODEL>
4

>  <REMARK>
 VINA RESULT:      -3.7      2.219      7.156
  Name = shuffle_control_ligand
  12 active torsions:
  status: ('A' for Active; 'I' for Inactive)
    1  A    between atoms: C_1  and  C_2
    2  A    between atoms: C_2  and  C_3
    3  A    between atoms: C_3  and  C_4
    4  A    between atoms: C_4  and  C_5
    5  A    between atoms: C_5  and  C_6
    6  A    between atoms: C_5  and  O_8
    7  A    between atoms: C_6  and  C_7
    8  A    between atoms: O_8  and  C_9
    9  A    between atoms: C_9  and  C_11
   10  A    between atoms: C_12  and  C_13
   11  A    between atoms: C_16  and  O_17
   12  A    between atoms: O_17  and  C_18
                            x       y       z     vdW  Elec       q    Type
                         _______ _______ _______ _____ _____    ______ ____

>  <TORSDO>
F 9

$$$$
shuffle_control_ligand
 OpenBabel10092621093D

 20 20  0  0  1  0  0  0  0  0999 V2000
    8.7140    4.6310    3.3190 C   0  0  0  0  0  0  0  0  0  0  0  0
    7.7900    4.9250    4.0300 O   0  0  0  0  0  0  0  0  0  0  0  0
    9.1900    5.4540    2.1810 C   0  0  0  0  0  3  0  0  0  0  0  0
    8.4450    5.5940    1.0810 C   0  0  0  0  0  3  0  0  0  0  0  0
    8.8630    6.3770   -0.1070 C   0  0  0  0  0  0  0  0  0  0  0  0
   10.1740    6.4960   -0.4860 C   0  0  0  0  0  3  0  0  0  0  0  0
   10.5230    7.2390   -1.6090 C   0  0  0  0  0  3  0  0  0  0  0  0
    9.5590    7.8660   -2.3540 C   0  0  0  0  0  0  0  0  0  0  0  0
    8.2430    7.7520   -1.9770 C   0  0  0  0  0  3  0  0  0  0  0  0
    7.8940    7.0120   -0.8540 C   0  0  0  0  0  3  0  0  0  0  0  0
    9.8350    8.6030   -3.4680 O   0  0  0  0  0  0  0  0  0  0  0  0
    9.8060   10.0160   -3.4090 C   0  0  0  0  0  1  0  0  0  0  0  0
    9.4080    3.5020    3.4970 O   0  0  0  0  0  0  0  0  0  0  0  0
   10.3600    3.0900    2.5370 C   0  0  1  0  0  3  0  0  0  0  0  0
   11.7080    2.8700    3.2060 C   0  0  0  0  0  2  0  0  0  0  0  0
   12.7540    3.8760    2.8660 C   0  0  0  0  0  1  0  0  0  0  0  0
    9.8940    1.7900    1.9240 C   0  0  0  0  0  2  0  0  0  0  0  0
    9.8600    1.8020    0.4300 C   0  0  0  0  0  2  0  0  0  0  0  0
   11.8050    2.4720   -0.9810 C   0  0  0  0  0  1  0  0  0  0  0  0
   10.6490    2.9480   -0.1460 C   0  0  0  0  0  2  0  0  0  0  0  0
  1 13  1  0  0  0  0
  1  2  2  0  0  0  0
  3  1  1  0  0  0  0
  4  3  2  0  0  0  0
  5  4  1  0  0  0  0
  6  5  1  0  0  0  0
  7  6  2  0  0  0  0
  8  9  2  0  0  0  0
  8  7  1  0  0  0  0
  9 10  1  0  0  0  0
 10  5  2  0  0  0  0
 11 12  1  0  0  0  0
 11  8  1  0  0  0  0
 14 17  1  1  0  0  0
 14 15  1  0  0  0  0
 14 13  1  0  0  0  0
 16 15  1  0  0  0  0
 18 17  1  0  0  0  0
 19 20  1  0  0  0  0
 20 18  1  0  0  0  0
M  END
>  <MODEL>
5

>  <REMARK>
 VINA RESULT:      -3.7      2.815      6.869
  Name = shuffle_control_ligand
  12 active torsions:
  status: ('A' for Active; 'I' for Inactive)
    1  A    between atoms: C_1  and  C_2
    2  A    between atoms: C_2  and  C_3
    3  A    between atoms: C_3  and  C_4
    4  A    between atoms: C_4  and  C_5
    5  A    between atoms: C_5  and  C_6
    6  A    between atoms: C_5  and  O_8
    7  A    between atoms: C_6  and  C_7
    8  A    between atoms: O_8  and  C_9
    9  A    between atoms: C_9  and  C_11
   10  A    between atoms: C_12  and  C_13
   11  A    between atoms: C_16  and  O_17
   12  A    between atoms: O_17  and  C_18
                            x       y       z     vdW  Elec       q    Type
                         _______ _______ _______ _____ _____    ______ ____

>  <TORSDO>
F 9

$$$$
shuffle_control_ligand
 OpenBabel10092621093D

 20 20  0  0  1  0  0  0  0  0999 V2000
   11.4720    4.7460   -0.6900 C   0  0  0  0  0  0  0  0  0  0  0  0
   12.2550    5.3160   -1.4030 O   0  0  0  0  0  0  0  0  0  0  0  0
   11.2270    3.2830   -0.7170 C   0  0  0  0  0  3  0  0  0  0  0  0
   10.3340    2.7240    0.1050 C   0  0  0  0  0  3  0  0  0  0  0  0
   10.0540    1.2700    0.1570 C   0  0  0  0  0  0  0  0  0  0  0  0
    9.1150    0.7310    0.9970 C   0  0  0  0  0  3  0  0  0  0  0  0
    8.8820   -0.6400    1.0130 C   0  0  0  0  0  3  0  0  0  0  0  0
    9.5910   -1.4750    0.1890 C   0  0  0  0  0  0  0  0  0  0  0  0
   10.5350   -0.9410   -0.6530 C   0  0  0  0  0  3  0  0  0  0  0  0
   10.7700    0.4290   -0.6680 C   0  0  0  0  0  3  0  0  0  0  0  0
    9.4040   -2.8260    0.1530 O   0  0  0  0  0  0  0  0  0  0  0  0
    8.8270   -3.4320   -0.9880 C   0  0  0  0  0  1  0  0  0  0  0  0
   10.7330    5.4010    0.2100 O   0  0  0  0  0  0  0  0  0  0  0  0
    9.6700    6.2330   -0.2080 C   0  0  1  0  0  3  0  0  0  0  0  0
    8.3970    5.8600    0.5360 C   0  0  0  0  0  2  0  0  0  0  0  0
    7.2110    5.6050   -0.3310 C   0  0  0  0  0  1  0  0  0  0  0  0
   10.0260    7.6660    0.1110 C   0  0  0  0  0  2  0  0  0  0  0  0
   10.0020    8.5750   -1.0750 C   0  0  0  0  0  2  0  0  0  0  0  0
    8.3540    8.3320   -2.9320 C   0  0  0  0  0  1  0  0  0  0  0  0
    9.6480    7.8440   -2.3440 C   0  0  0  0  0  2  0  0  0  0  0  0
  1 13  1  0  0  0  0
  2  1  2  0  0  0  0
  3  1  1  0  0  0  0
  3  4  2  0  0  0  0
  4  5  1  0  0  0  0
  5  6  1  0  0  0  0
  6  7  2  0  0  0  0
  8  7  1  0  0  0  0
  9  8  2  0  0  0  0
 10  9  1  0  0  0  0
 10  5  2  0  0  0  0
 11  8  1  0  0  0  0
 12 11  1  0  0  0  0
 14 17  1  1  0  0  0
 14 13  1  0  0  0  0
 14 15  1  0  0  0  0
 16 15  1  0  0  0  0
 18 17  1  0  0  0  0
 19 20  1  0  0  0  0
 20 18  1  0  0  0  0
M  END
>  <MODEL>
6

>  <REMARK>
 VINA RESULT:      -3.6      1.948      3.399
  Name = shuffle_control_ligand
  12 active torsions:
  status: ('A' for Active; 'I' for Inactive)
    1  A    between atoms: C_1  and  C_2
    2  A    between atoms: C_2  and  C_3
    3  A    between atoms: C_3  and  C_4
    4  A    between atoms: C_4  and  C_5
    5  A    between atoms: C_5  and  C_6
    6  A    between atoms: C_5  and  O_8
    7  A    between atoms: C_6  and  C_7
    8  A    between atoms: O_8  and  C_9
    9  A    between atoms: C_9  and  C_11
   10  A    between atoms: C_12  and  C_13
   11  A    between atoms: C_16  and  O_17
   12  A    between atoms: O_17  and  C_18
                            x       y       z     vdW  Elec       q    Type
                         _______ _______ _______ _____ _____    ______ ____

>  <TORSDO>
F 9

$$$$
shuffle_control_ligand
 OpenBabel10092621093D

 20 20  0  0  1  0  0  0  0  0999 V2000
   11.7140    5.0390   -0.7800 C   0  0  0  0  0  0  0  0  0  0  0  0
   12.5620    5.1290   -1.6270 O   0  0  0  0  0  0  0  0  0  0  0  0
   10.9170    3.8160   -0.5210 C   0  0  0  0  0  3  0  0  0  0  0  0
   11.4920    2.6100   -0.5330 C   0  0  0  0  0  3  0  0  0  0  0  0
   10.7590    1.3400   -0.3110 C   0  0  0  0  0  0  0  0  0  0  0  0
    9.6970    1.2450    0.5480 C   0  0  0  0  0  3  0  0  0  0  0  0
    9.0360    0.0340    0.7260 C   0  0  0  0  0  3  0  0  0  0  0  0
    9.4390   -1.0840    0.0450 C   0  0  0  0  0  0  0  0  0  0  0  0
   10.5050   -0.9950   -0.8160 C   0  0  0  0  0  3  0  0  0  0  0  0
   11.1680    0.2140   -0.9930 C   0  0  0  0  0  3  0  0  0  0  0  0
    8.8290   -2.2980    0.1700 O   0  0  0  0  0  0  0  0  0  0  0  0
    7.9120   -2.5250    1.2230 C   0  0  0  0  0  1  0  0  0  0  0  0
   11.4060    6.0650    0.0200 O   0  0  0  0  0  0  0  0  0  0  0  0
   10.7290    5.8410    1.2390 C   0  0  1  0  0  3  0  0  0  0  0  0
   11.5090    6.4610    2.3880 C   0  0  0  0  0  2  0  0  0  0  0  0
   10.8290    7.5960    3.0750 C   0  0  0  0  0  1  0  0  0  0  0  0
    9.3670    6.4910    1.1600 C   0  0  0  0  0  2  0  0  0  0  0  0
    8.2480    5.5280    0.9300 C   0  0  0  0  0  2  0  0  0  0  0  0
    8.0290    7.0410   -1.0410 C   0  0  0  0  0  1  0  0  0  0  0  0
    7.4470    5.8700   -0.2990 C   0  0  0  0  0  2  0  0  0  0  0  0
  1  3  1  0  0  0  0
  1 13  1  0  0  0  0
  2  1  2  0  0  0  0
  4  3  2  0  0  0  0
  4  5  1  0  0  0  0
  5  6  1  0  0  0  0
  6  7  2  0  0  0  0
  8 11  1  0  0  0  0
  8  7  1  0  0  0  0
  9  8  2  0  0  0  0
 10  9  1  0  0  0  0
 10  5  2  0  0  0  0
 11 12  1  0  0  0  0
 13 14  1  0  0  0  0
 14 17  1  6  0  0  0
 14 15  1  0  0  0  0
 15 16  1  0  0  0  0
 18 17  1  0  0  0  0
 19 20  1  0  0  0  0
 20 18  1  0  0  0  0
M  END
>  <MODEL>
7

>  <REMARK>
 VINA RESULT:      -3.5      2.210      3.418
  Name = shuffle_control_ligand
  12 active torsions:
  status: ('A' for Active; 'I' for Inactive)
    1  A    between atoms: C_1  and  C_2
    2  A    between atoms: C_2  and  C_3
    3  A    between atoms: C_3  and  C_4
    4  A    between atoms: C_4  and  C_5
    5  A    between atoms: C_5  and  C_6
    6  A    between atoms: C_5  and  O_8
    7  A    between atoms: C_6  and  C_7
    8  A    between atoms: O_8  and  C_9
    9  A    between atoms: C_9  and  C_11
   10  A    between atoms: C_12  and  C_13
   11  A    between atoms: C_16  and  O_17
   12  A    between atoms: O_17  and  C_18
                            x       y       z     vdW  Elec       q    Type
                         _______ _______ _______ _____ _____    ______ ____

>  <TORSDO>
F 9

$$$$
shuffle_control_ligand
 OpenBabel10092621093D

 20 20  0  0  1  0  0  0  0  0999 V2000
    9.5610    3.8150    2.1320 C   0  0  0  0  0  0  0  0  0  0  0  0
    9.2470    3.6220    3.2760 O   0  0  0  0  0  0  0  0  0  0  0  0
    9.0200    4.9080    1.2880 C   0  0  0  0  0  3  0  0  0  0  0  0
    9.6840    6.0590    1.1520 C   0  0  0  0  0  3  0  0  0  0  0  0
    9.1950    7.2070    0.3500 C   0  0  0  0  0  0  0  0  0  0  0  0
    9.5970    8.4950    0.5890 C   0  0  0  0  0  3  0  0  0  0  0  0
    9.1150    9.5430   -0.1880 C   0  0  0  0  0  3  0  0  0  0  0  0
    8.2280    9.3030   -1.2050 C   0  0  0  0  0  0  0  0  0  0  0  0
    7.8200    8.0140   -1.4470 C   0  0  0  0  0  3  0  0  0  0  0  0
    8.2990    6.9660   -0.6700 C   0  0  0  0  0  3  0  0  0  0  0  0
    7.7250   10.2850   -2.0070 O   0  0  0  0  0  0  0  0  0  0  0  0
    8.5970   11.2060   -2.6330 C   0  0  0  0  0  1  0  0  0  0  0  0
   10.4480    3.0360    1.5040 O   0  0  0  0  0  0  0  0  0  0  0  0
   10.1180    2.4280    0.2720 C   0  0  1  0  0  3  0  0  0  0  0  0
   11.3060    2.5000   -0.6760 C   0  0  0  0  0  2  0  0  0  0  0  0
   11.8010    3.8750   -0.9670 C   0  0  0  0  0  1  0  0  0  0  0  0
    9.7760    0.9790    0.5270 C   0  0  0  0  0  2  0  0  0  0  0  0
   10.3740    0.0320   -0.4630 C   0  0  0  0  0  2  0  0  0  0  0  0
    9.6940   -1.7210   -2.1020 C   0  0  0  0  0  1  0  0  0  0  0  0
    9.4810   -1.1520   -0.7270 C   0  0  0  0  0  2  0  0  0  0  0  0
  1  2  2  0  0  0  0
  3  1  1  0  0  0  0
  4  3  2  0  0  0  0
  5  6  1  0  0  0  0
  5  4  1  0  0  0  0
  7  6  2  0  0  0  0
  8  7  1  0  0  0  0
  9  8  2  0  0  0  0
  9 10  1  0  0  0  0
 10  5  2  0  0  0  0
 11  8  1  0  0  0  0
 12 11  1  0  0  0  0
 13  1  1  0  0  0  0
 14 15  1  6  0  0  0
 14 17  1  0  0  0  0
 14 13  1  0  0  0  0
 16 15  1  0  0  0  0
 18 17  1  0  0  0  0
 19 20  1  0  0  0  0
 20 18  1  0  0  0  0
M  END
>  <MODEL>
8

>  <REMARK>
 VINA RESULT:      -3.4      2.521      7.462
  Name = shuffle_control_ligand
  12 active torsions:
  status: ('A' for Active; 'I' for Inactive)
    1  A    between atoms: C_1  and  C_2
    2  A    between atoms: C_2  and  C_3
    3  A    between atoms: C_3  and  C_4
    4  A    between atoms: C_4  and  C_5
    5  A    between atoms: C_5  and  C_6
    6  A    between atoms: C_5  and  O_8
    7  A    between atoms: C_6  and  C_7
    8  A    between atoms: O_8  and  C_9
    9  A    between atoms: C_9  and  C_11
   10  A    between atoms: C_12  and  C_13
   11  A    between atoms: C_16  and  O_17
   12  A    between atoms: O_17  and  C_18
                            x       y       z     vdW  Elec       q    Type
                         _______ _______ _______ _____ _____    ______ ____

>  <TORSDO>
F 9

$$$$
shuffle_control_ligand
 OpenBabel10092621093D

 20 20  0  0  1  0  0  0  0  0999 V2000
   11.9760   -0.2050   -0.6460 C   0  0  0  0  0  0  0  0  0  0  0  0
   12.9590   -0.4540    0.0000 O   0  0  0  0  0  0  0  0  0  0  0  0
   11.4130    1.1550   -0.8220 C   0  0  0  0  0  3  0  0  0  0  0  0
   11.0700    1.8960    0.2360 C   0  0  0  0  0  3  0  0  0  0  0  0
   10.4760    3.2510    0.1410 C   0  0  0  0  0  0  0  0  0  0  0  0
    9.2260    3.5420    0.6200 C   0  0  0  0  0  3  0  0  0  0  0  0
    8.7070    4.8280    0.5120 C   0  0  0  0  0  3  0  0  0  0  0  0
    9.4390    5.8250   -0.0790 C   0  0  0  0  0  0  0  0  0  0  0  0
   10.6910    5.5380   -0.5630 C   0  0  0  0  0  3  0  0  0  0  0  0
   11.2100    4.2530   -0.4580 C   0  0  0  0  0  3  0  0  0  0  0  0
    8.9900    7.1060   -0.2090 O   0  0  0  0  0  0  0  0  0  0  0  0
    7.9830    7.4120   -1.1550 C   0  0  0  0  0  1  0  0  0  0  0  0
   11.2860   -1.1620   -1.2750 O   0  0  0  0  0  0  0  0  0  0  0  0
    9.8750   -1.1030   -1.3330 C   0  0  1  0  0  3  0  0  0  0  0  0
    9.3740   -1.8760   -2.5440 C   0  0  0  0  0  2  0  0  0  0  0  0
    8.7970   -3.2170   -2.2440 C   0  0  0  0  0  1  0  0  0  0  0  0
    9.3150   -1.7330   -0.0790 C   0  0  0  0  0  2  0  0  0  0  0  0
    8.6030   -0.7710    0.8160 C   0  0  0  0  0  2  0  0  0  0  0  0
   10.2760   -0.7230    2.6650 C   0  0  0  0  0  1  0  0  0  0  0  0
    8.8620   -1.0520    2.2730 C   0  0  0  0  0  2  0  0  0  0  0  0
  1  2  2  0  0  0  0
  3  1  1  0  0  0  0
  3  4  2  0  0  0  0
  5  4  1  0  0  0  0
  5  6  1  0  0  0  0
  7  6  2  0  0  0  0
  8  7  1  0  0  0  0
  9 10  1  0  0  0  0
  9  8  2  0  0  0  0
 10  5  2  0  0  0  0
 11  8  1  0  0  0  0
 12 11  1  0  0  0  0
 13  1  1  0  0  0  0
 14 15  1  6  0  0  0
 14 13  1  0  0  0  0
 14 17  1  0  0  0  0
 15 16  1  0  0  0  0
 17 18  1  0  0  0  0
 18 20  1  0  0  0  0
 20 19  1  0  0  0  0
M  END
>  <MODEL>
9

>  <REMARK>
 VINA RESULT:      -3.4      2.276      7.274
  Name = shuffle_control_ligand
  12 active torsions:
  status: ('A' for Active; 'I' for Inactive)
    1  A    between atoms: C_1  and  C_2
    2  A    between atoms: C_2  and  C_3
    3  A    between atoms: C_3  and  C_4
    4  A    between atoms: C_4  and  C_5
    5  A    between atoms: C_5  and  C_6
    6  A    between atoms: C_5  and  O_8
    7  A    between atoms: C_6  and  C_7
    8  A    between atoms: O_8  and  C_9
    9  A    between atoms: C_9  and  C_11
   10  A    between atoms: C_12  and  C_13
   11  A    between atoms: C_16  and  O_17
   12  A    between atoms: O_17  and  C_18
                            x       y       z     vdW  Elec       q    Type
                         _______ _______ _______ _____ _____    ______ ____

>  <TORSDO>
F 9

$$$$
