bg33_1_ligand
     RDKit          3D

 44 44  0  0  0  0  0  0  0  0999 V2000
   -1.6785   -2.4742   -8.8195 C   0  0  0  0  0  0  0  0  0  0  0  0
   -2.1010   -2.9241   -7.4389 C   0  0  0  0  0  0  0  0  0  0  0  0
   -2.0357   -1.8119   -6.5118 C   0  0  0  0  0  0  0  0  0  0  0  0
   -0.6856   -1.8484   -6.0771 C   0  0  0  0  0  0  0  0  0  0  0  0
   -0.2403   -0.6434   -5.5129 C   0  0  2  0  0  0  0  0  0  0  0  0
   -0.0921   -0.5712   -4.0310 C   0  0  0  0  0  0  0  0  0  0  0  0
   -1.3130   -0.3689   -3.3505 C   0  0  0  0  0  0  0  0  0  0  0  0
   -0.7535    0.4042   -5.9921 O   0  0  0  0  0  0  0  0  0  0  0  0
    0.0100    1.4342   -5.8510 C   0  0  0  0  0  0  0  0  0  0  0  0
    1.1143    1.3059   -5.3943 O   0  0  0  0  0  0  0  0  0  0  0  0
   -0.4703    2.6984   -6.2443 C   0  0  0  0  0  0  0  0  0  0  0  0
   -0.1424    3.6939   -5.5499 C   0  0  0  0  0  0  0  0  0  0  0  0
   -0.6532    4.9628   -5.7166 C   0  0  0  0  0  0  0  0  0  0  0  0
   -0.5603    5.6075   -6.8883 C   0  0  0  0  0  0  0  0  0  0  0  0
   -1.0559    6.8569   -7.0693 C   0  0  0  0  0  0  0  0  0  0  0  0
   -1.6965    7.4305   -6.0105 C   0  0  0  0  0  0  0  0  0  0  0  0
   -2.1918    8.6412   -6.1106 O   0  0  0  0  0  0  0  0  0  0  0  0
   -3.5498    8.7153   -5.8415 C   0  0  0  0  0  0  0  0  0  0  0  0
   -1.8257    6.8361   -4.8424 C   0  0  0  0  0  0  0  0  0  0  0  0
   -1.2797    5.6084   -4.6855 C   0  0  0  0  0  0  0  0  0  0  0  0
   -2.2663   -3.0136   -9.5768 H   0  0  0  0  0  0  0  0  0  0  0  0
   -1.8526   -1.3929   -8.9220 H   0  0  0  0  0  0  0  0  0  0  0  0
   -0.6093   -2.6888   -8.9638 H   0  0  0  0  0  0  0  0  0  0  0  0
   -3.1326   -3.3039   -7.4796 H   0  0  0  0  0  0  0  0  0  0  0  0
   -1.4231   -3.7195   -7.0958 H   0  0  0  0  0  0  0  0  0  0  0  0
   -2.2648   -0.8614   -7.0156 H   0  0  0  0  0  0  0  0  0  0  0  0
   -2.7619   -1.8859   -5.6888 H   0  0  0  0  0  0  0  0  0  0  0  0
   -0.5854   -2.6426   -5.3227 H   0  0  0  0  0  0  0  0  0  0  0  0
   -0.0669   -2.0335   -6.9675 H   0  0  0  0  0  0  0  0  0  0  0  0
    0.8011   -0.6771   -5.8658 H   0  0  0  0  0  0  0  0  0  0  0  0
    0.3500   -1.5150   -3.6792 H   0  0  0  0  0  0  0  0  0  0  0  0
    0.5470    0.2970   -3.8124 H   0  0  0  0  0  0  0  0  0  0  0  0
   -2.0979   -0.9838   -3.8150 H   0  0  0  0  0  0  0  0  0  0  0  0
   -1.1970   -0.6581   -2.2955 H   0  0  0  0  0  0  0  0  0  0  0  0
   -1.5949    0.6926   -3.4109 H   0  0  0  0  0  0  0  0  0  0  0  0
   -1.1119    2.8112   -7.1307 H   0  0  0  0  0  0  0  0  0  0  0  0
    0.6029    3.5416   -4.7554 H   0  0  0  0  0  0  0  0  0  0  0  0
   -0.0648    5.1055   -7.7324 H   0  0  0  0  0  0  0  0  0  0  0  0
   -0.9461    7.3846   -8.0282 H   0  0  0  0  0  0  0  0  0  0  0  0
   -4.0887    7.9939   -6.4733 H   0  0  0  0  0  0  0  0  0  0  0  0
   -3.7271    8.4789   -4.7819 H   0  0  0  0  0  0  0  0  0  0  0  0
   -3.9111    9.7319   -6.0558 H   0  0  0  0  0  0  0  0  0  0  0  0
   -2.3632    7.3249   -4.0165 H   0  0  0  0  0  0  0  0  0  0  0  0
   -1.3410    5.1163   -3.7036 H   0  0  0  0  0  0  0  0  0  0  0  0
  2  1  1  0
  3  2  1  0
  4  3  1  0
  5  4  1  0
  6  5  1  0
  7  6  1  0
  8  5  1  0
  9  8  1  0
 10  9  2  0
 11  9  1  0
 12 11  2  3
 13 12  1  0
 14 13  1  0
 15 14  2  0
 16 15  1  0
 17 16  1  0
 18 17  1  0
 19 16  2  0
 20 13  2  0
 20 19  1  0
  1 21  1  0
  1 22  1  0
  1 23  1  0
  2 24  1  0
  2 25  1  0
  3 26  1  0
  3 27  1  0
  4 28  1  0
  4 29  1  0
  5 30  1  6
  6 31  1  0
  6 32  1  0
  7 33  1  0
  7 34  1  0
  7 35  1  0
 11 36  1  0
 12 37  1  0
 14 38  1  0
 15 39  1  0
 18 40  1  0
 18 41  1  0
 18 42  1  0
 19 43  1  0
 20 44  1  0
M  END
$$$$
