bg33_1_ligand
 OpenBabel10092621123D

 20 20  0  0  1  0  0  0  0  0999 V2000
   -5.6390    4.1760   -2.8050 C   0  0  0  0  0  0  0  0  0  0  0  0
   -5.1870    4.1850   -3.9180 O   0  0  0  0  0  0  0  0  0  0  0  0
   -5.4870    3.0520   -1.9700 C   0  0  0  0  0  3  0  0  0  0  0  0
   -5.8460    3.1590   -0.7690 C   0  0  0  0  0  3  0  0  0  0  0  0
   -5.6190    2.2050    0.2000 C   0  0  0  0  0  0  0  0  0  0  0  0
   -6.4760    2.0180    1.2120 C   0  0  0  0  0  3  0  0  0  0  0  0
   -6.2680    1.0850    2.1750 C   0  0  0  0  0  3  0  0  0  0  0  0
   -5.1560    0.3050    2.0550 C   0  0  0  0  0  0  0  0  0  0  0  0
   -4.2880    0.4400    1.0720 C   0  0  0  0  0  3  0  0  0  0  0  0
   -4.5060    1.4100    0.1550 C   0  0  0  0  0  3  0  0  0  0  0  0
   -4.8860   -0.6110    2.9540 O   0  0  0  0  0  0  0  0  0  0  0  0
   -3.5320   -0.8700    3.1010 C   0  0  0  0  0  1  0  0  0  0  0  0
   -6.2720    5.2060   -2.3570 O   0  0  0  0  0  0  0  0  0  0  0  0
   -7.1090    5.6530   -3.1860 C   0  0  1  0  0  3  0  0  0  0  0  0
   -8.3740    4.8630   -3.1910 C   0  0  0  0  0  2  0  0  0  0  0  0
   -9.0390    4.8670   -4.4370 C   0  0  0  0  0  1  0  0  0  0  0  0
   -7.2010    7.0510   -3.2600 C   0  0  0  0  0  2  0  0  0  0  0  0
   -6.0110    7.7240   -2.8810 C   0  0  0  0  0  2  0  0  0  0  0  0
   -4.0230    7.5210   -4.2570 C   0  0  0  0  0  1  0  0  0  0  0  0
   -5.4250    8.0780   -4.1580 C   0  0  0  0  0  2  0  0  0  0  0  0
  1 13  1  0  0  0  0
  1  3  1  0  0  0  0
  2  1  2  0  0  0  0
  3  4  2  0  0  0  0
  4  5  1  0  0  0  0
  5  6  1  0  0  0  0
  6  7  2  0  0  0  0
  8  7  1  0  0  0  0
  8 11  1  0  0  0  0
  9  8  2  0  0  0  0
 10  5  2  0  0  0  0
 10  9  1  0  0  0  0
 11 12  1  0  0  0  0
 14 17  1  1  0  0  0
 14 13  1  0  0  0  0
 15 14  1  0  0  0  0
 16 15  1  0  0  0  0
 17 18  1  0  0  0  0
 19 20  1  0  0  0  0
 20 18  1  0  0  0  0
M  END
>  <MODEL>
1

>  <REMARK>
 VINA RESULT:      -3.6      0.000      0.000
  Name = bg33_1_ligand
  12 active torsions:
  status: ('A' for Active; 'I' for Inactive)
    1  A    between atoms: C_1  and  C_2
    2  A    between atoms: C_2  and  C_3
    3  A    between atoms: C_3  and  C_4
    4  A    between atoms: C_4  and  C_5
    5  A    between atoms: C_5  and  C_6
    6  A    between atoms: C_5  and  O_8
    7  A    between atoms: C_6  and  C_7
    8  A    between atoms: O_8  and  C_9
    9  A    between atoms: C_9  and  C_11
   10  A    between atoms: C_12  and  C_13
   11  A    between atoms: C_16  and  O_17
   12  A    between atoms: O_17  and  C_18
                            x       y       z     vdW  Elec       q    Type
                         _______ _______ _______ _____ _____    ______ ____

>  <TORSDO>
F 9

$$$$
bg33_1_ligand
 OpenBabel10092621123D

 20 20  0  0  1  0  0  0  0  0999 V2000
   -5.2850    1.8360    0.0480 C   0  0  0  0  0  0  0  0  0  0  0  0
   -4.0880    1.7910    0.1410 O   0  0  0  0  0  0  0  0  0  0  0  0
   -5.9320    2.9900   -0.4340 C   0  0  0  0  0  3  0  0  0  0  0  0
   -6.0320    3.1320   -1.6800 C   0  0  0  0  0  3  0  0  0  0  0  0
   -6.4980    4.2710   -2.3000 C   0  0  0  0  0  0  0  0  0  0  0  0
   -5.7290    5.3610   -2.4320 C   0  0  0  0  0  3  0  0  0  0  0  0
   -6.1730    6.4910   -3.0370 C   0  0  0  0  0  3  0  0  0  0  0  0
   -7.4360    6.4670   -3.5490 C   0  0  0  0  0  0  0  0  0  0  0  0
   -8.2280    5.4180   -3.4570 C   0  0  0  0  0  3  0  0  0  0  0  0
   -7.7670    4.3240   -2.8080 C   0  0  0  0  0  3  0  0  0  0  0  0
   -7.9340    7.5270   -4.1400 O   0  0  0  0  0  0  0  0  0  0  0  0
   -7.3220    7.8380   -5.3440 C   0  0  0  0  0  1  0  0  0  0  0  0
   -5.9970    0.8150    0.3870 O   0  0  0  0  0  0  0  0  0  0  0  0
   -6.9170    1.1190    1.1940 C   0  0  1  0  0  3  0  0  0  0  0  0
   -8.1890    0.4000    0.8960 C   0  0  0  0  0  2  0  0  0  0  0  0
   -8.9970    1.0550   -0.0590 C   0  0  0  0  0  1  0  0  0  0  0  0
   -6.5260    1.2460    2.5360 C   0  0  0  0  0  2  0  0  0  0  0  0
   -7.6100    1.4340    3.4330 C   0  0  0  0  0  2  0  0  0  0  0  0
   -7.2610    3.8180    3.7200 C   0  0  0  0  0  1  0  0  0  0  0  0
   -7.1020    2.4470    4.3360 C   0  0  0  0  0  2  0  0  0  0  0  0
  1  2  2  0  0  0  0
  1 13  1  0  0  0  0
  3  1  1  0  0  0  0
  4  3  2  0  0  0  0
  5  4  1  0  0  0  0
  6  5  1  0  0  0  0
  7  6  2  0  0  0  0
  8  9  2  0  0  0  0
  8  7  1  0  0  0  0
  9 10  1  0  0  0  0
 10  5  2  0  0  0  0
 11  8  1  0  0  0  0
 12 11  1  0  0  0  0
 13 14  1  0  0  0  0
 14 15  1  1  0  0  0
 14 17  1  0  0  0  0
 16 15  1  0  0  0  0
 17 18  1  0  0  0  0
 18 20  1  0  0  0  0
 19 20  1  0  0  0  0
M  END
>  <MODEL>
2

>  <REMARK>
 VINA RESULT:      -3.6      2.044      7.298
  Name = bg33_1_ligand
  12 active torsions:
  status: ('A' for Active; 'I' for Inactive)
    1  A    between atoms: C_1  and  C_2
    2  A    between atoms: C_2  and  C_3
    3  A    between atoms: C_3  and  C_4
    4  A    between atoms: C_4  and  C_5
    5  A    between atoms: C_5  and  C_6
    6  A    between atoms: C_5  and  O_8
    7  A    between atoms: C_6  and  C_7
    8  A    between atoms: O_8  and  C_9
    9  A    between atoms: C_9  and  C_11
   10  A    between atoms: C_12  and  C_13
   11  A    between atoms: C_16  and  O_17
   12  A    between atoms: O_17  and  C_18
                            x       y       z     vdW  Elec       q    Type
                         _______ _______ _______ _____ _____    ______ ____

>  <TORSDO>
F 9

$$$$
bg33_1_ligand
 OpenBabel10092621123D

 20 20  0  0  1  0  0  0  0  0999 V2000
   -7.4170    4.8000   -3.4660 C   0  0  0  0  0  0  0  0  0  0  0  0
   -7.0520    4.4940   -4.5700 O   0  0  0  0  0  0  0  0  0  0  0  0
   -7.2100    3.9410   -2.3700 C   0  0  0  0  0  3  0  0  0  0  0  0
   -6.0240    3.6540   -2.0630 C   0  0  0  0  0  3  0  0  0  0  0  0
   -5.6690    2.7140   -1.1200 C   0  0  0  0  0  0  0  0  0  0  0  0
   -6.1860    2.7310    0.1160 C   0  0  0  0  0  3  0  0  0  0  0  0
   -5.8470    1.8140    1.0560 C   0  0  0  0  0  3  0  0  0  0  0  0
   -4.9740    0.8350    0.6840 C   0  0  0  0  0  0  0  0  0  0  0  0
   -4.4460    0.7650   -0.5220 C   0  0  0  0  0  3  0  0  0  0  0  0
   -4.7750    1.7230   -1.4200 C   0  0  0  0  0  3  0  0  0  0  0  0
   -4.5930   -0.0790    1.5440 O   0  0  0  0  0  0  0  0  0  0  0  0
   -3.3320   -0.5960    1.2920 C   0  0  0  0  0  1  0  0  0  0  0  0
   -8.0030    5.9320   -3.2710 O   0  0  0  0  0  0  0  0  0  0  0  0
   -7.3680    6.8960   -3.7790 C   0  0  1  0  0  3  0  0  0  0  0  0
   -8.2530    7.8020   -4.5660 C   0  0  0  0  0  2  0  0  0  0  0  0
   -9.5950    7.8040   -4.1250 C   0  0  0  0  0  1  0  0  0  0  0  0
   -6.3890    7.4750   -2.9570 C   0  0  0  0  0  2  0  0  0  0  0  0
   -5.1770    7.7730   -3.6330 C   0  0  0  0  0  2  0  0  0  0  0  0
   -3.8010    5.8810   -4.2760 C   0  0  0  0  0  1  0  0  0  0  0  0
   -4.2760    6.7520   -3.1360 C   0  0  0  0  0  2  0  0  0  0  0  0
  1 13  1  0  0  0  0
  1  3  1  0  0  0  0
  2  1  2  0  0  0  0
  3  4  2  0  0  0  0
  4  5  1  0  0  0  0
  5  6  1  0  0  0  0
  6  7  2  0  0  0  0
  8  7  1  0  0  0  0
  8 11  1  0  0  0  0
  9  8  2  0  0  0  0
 10  5  2  0  0  0  0
 10  9  1  0  0  0  0
 12 11  1  0  0  0  0
 14 15  1  1  0  0  0
 14 13  1  0  0  0  0
 14 17  1  0  0  0  0
 15 16  1  0  0  0  0
 18 20  1  0  0  0  0
 18 17  1  0  0  0  0
 19 20  1  0  0  0  0
M  END
>  <MODEL>
3

>  <REMARK>
 VINA RESULT:      -3.6      1.391      1.842
  Name = bg33_1_ligand
  12 active torsions:
  status: ('A' for Active; 'I' for Inactive)
    1  A    between atoms: C_1  and  C_2
    2  A    between atoms: C_2  and  C_3
    3  A    between atoms: C_3  and  C_4
    4  A    between atoms: C_4  and  C_5
    5  A    between atoms: C_5  and  C_6
    6  A    between atoms: C_5  and  O_8
    7  A    between atoms: C_6  and  C_7
    8  A    between atoms: O_8  and  C_9
    9  A    between atoms: C_9  and  C_11
   10  A    between atoms: C_12  and  C_13
   11  A    between atoms: C_16  and  O_17
   12  A    between atoms: O_17  and  C_18
                            x       y       z     vdW  Elec       q    Type
                         _______ _______ _______ _____ _____    ______ ____

>  <TORSDO>
F 9

$$$$
bg33_1_ligand
 OpenBabel10092621123D

 20 20  0  0  1  0  0  0  0  0999 V2000
   -6.6060    2.5150   -1.6580 C   0  0  0  0  0  0  0  0  0  0  0  0
   -7.7680    2.4600   -1.9600 O   0  0  0  0  0  0  0  0  0  0  0  0
   -5.8290    3.6480   -1.9680 C   0  0  0  0  0  3  0  0  0  0  0  0
   -6.4260    4.6760   -2.3780 C   0  0  0  0  0  3  0  0  0  0  0  0
   -5.7950    5.8020   -2.8620 C   0  0  0  0  0  0  0  0  0  0  0  0
   -4.5430    5.7550   -3.3360 C   0  0  0  0  0  3  0  0  0  0  0  0
   -3.9070    6.8540   -3.8150 C   0  0  0  0  0  3  0  0  0  0  0  0
   -4.6120    8.0210   -3.8330 C   0  0  0  0  0  0  0  0  0  0  0  0
   -5.8500    8.1190   -3.3910 C   0  0  0  0  0  3  0  0  0  0  0  0
   -6.4350    7.0110   -2.8800 C   0  0  0  0  0  3  0  0  0  0  0  0
   -4.0580    9.1250   -4.2730 O   0  0  0  0  0  0  0  0  0  0  0  0
   -2.7490    8.9640   -4.7010 C   0  0  0  0  0  1  0  0  0  0  0  0
   -6.0530    1.5290   -1.0370 O   0  0  0  0  0  0  0  0  0  0  0  0
   -5.4540    1.8960    0.0090 C   0  0  1  0  0  3  0  0  0  0  0  0
   -6.3830    2.0560    1.1640 C   0  0  0  0  0  2  0  0  0  0  0  0
   -7.0380    0.8600    1.5330 C   0  0  0  0  0  1  0  0  0  0  0  0
   -4.2100    1.2880    0.2380 C   0  0  0  0  0  2  0  0  0  0  0  0
   -3.9390    0.1940   -0.6240 C   0  0  0  0  0  2  0  0  0  0  0  0
   -3.3570   -0.4980    1.6280 C   0  0  0  0  0  1  0  0  0  0  0  0
   -3.9110   -0.9310    0.2900 C   0  0  0  0  0  2  0  0  0  0  0  0
  1 13  1  0  0  0  0
  2  1  2  0  0  0  0
  3  1  1  0  0  0  0
  4  3  2  0  0  0  0
  5  4  1  0  0  0  0
  6  5  2  0  0  0  0
  7  6  1  0  0  0  0
  8  7  2  0  0  0  0
  8  9  1  0  0  0  0
  9 10  2  0  0  0  0
 10  5  1  0  0  0  0
 11  8  1  0  0  0  0
 12 11  1  0  0  0  0
 13 14  1  0  0  0  0
 14 17  1  1  0  0  0
 14 15  1  0  0  0  0
 15 16  1  0  0  0  0
 18 17  1  0  0  0  0
 18 20  1  0  0  0  0
 20 19  1  0  0  0  0
M  END
>  <MODEL>
4

>  <REMARK>
 VINA RESULT:      -3.5      1.971      7.542
  Name = bg33_1_ligand
  12 active torsions:
  status: ('A' for Active; 'I' for Inactive)
    1  A    between atoms: C_1  and  C_2
    2  A    between atoms: C_2  and  C_3
    3  A    between atoms: C_3  and  C_4
    4  A    between atoms: C_4  and  C_5
    5  A    between atoms: C_5  and  C_6
    6  A    between atoms: C_5  and  O_8
    7  A    between atoms: C_6  and  C_7
    8  A    between atoms: O_8  and  C_9
    9  A    between atoms: C_9  and  C_11
   10  A    between atoms: C_12  and  C_13
   11  A    between atoms: C_16  and  O_17
   12  A    between atoms: O_17  and  C_18
                            x       y       z     vdW  Elec       q    Type
                         _______ _______ _______ _____ _____    ______ ____

>  <TORSDO>
F 9

$$$$
bg33_1_ligand
 OpenBabel10092621123D

 20 20  0  0  1  0  0  0  0  0999 V2000
   -6.7270    2.3060   -1.2310 C   0  0  0  0  0  0  0  0  0  0  0  0
   -7.8550    2.0760   -1.5740 O   0  0  0  0  0  0  0  0  0  0  0  0
   -6.1480    3.5720   -1.4450 C   0  0  0  0  0  3  0  0  0  0  0  0
   -6.5850    4.2660   -2.3980 C   0  0  0  0  0  3  0  0  0  0  0  0
   -6.0220    5.4490   -2.8240 C   0  0  0  0  0  0  0  0  0  0  0  0
   -6.7140    6.5960   -2.8210 C   0  0  0  0  0  3  0  0  0  0  0  0
   -6.1750    7.7690   -3.2390 C   0  0  0  0  0  3  0  0  0  0  0  0
   -4.8700    7.7470   -3.6340 C   0  0  0  0  0  0  0  0  0  0  0  0
   -4.1410    6.6490   -3.6440 C   0  0  0  0  0  3  0  0  0  0  0  0
   -4.7260    5.4910   -3.2620 C   0  0  0  0  0  3  0  0  0  0  0  0
   -4.2860    8.8420   -4.0590 O   0  0  0  0  0  0  0  0  0  0  0  0
   -3.0340    8.6310   -4.6160 C   0  0  0  0  0  1  0  0  0  0  0  0
   -6.0280    1.3890   -0.6540 O   0  0  0  0  0  0  0  0  0  0  0  0
   -4.9050    1.2230   -1.2020 C   0  0  1  0  0  3  0  0  0  0  0  0
   -3.8270    0.9570   -0.2080 C   0  0  0  0  0  2  0  0  0  0  0  0
   -4.3100    0.5460    1.0540 C   0  0  0  0  0  1  0  0  0  0  0  0
   -4.9160    0.4710   -2.3860 C   0  0  0  0  0  2  0  0  0  0  0  0
   -3.7890    0.6980   -3.2190 C   0  0  0  0  0  2  0  0  0  0  0  0
   -5.5000    1.4910   -4.7470 C   0  0  0  0  0  1  0  0  0  0  0  0
   -4.2130    1.8250   -4.0260 C   0  0  0  0  0  2  0  0  0  0  0  0
  1 13  1  0  0  0  0
  2  1  2  0  0  0  0
  3  1  1  0  0  0  0
  4  3  2  0  0  0  0
  5  6  1  0  0  0  0
  5  4  1  0  0  0  0
  7  6  2  0  0  0  0
  8  7  1  0  0  0  0
  9  8  2  0  0  0  0
  9 10  1  0  0  0  0
 10  5  2  0  0  0  0
 11  8  1  0  0  0  0
 12 11  1  0  0  0  0
 14 17  1  6  0  0  0
 14 13  1  0  0  0  0
 14 15  1  0  0  0  0
 15 16  1  0  0  0  0
 18 17  1  0  0  0  0
 19 20  1  0  0  0  0
 20 18  1  0  0  0  0
M  END
>  <MODEL>
5

>  <REMARK>
 VINA RESULT:      -3.5      2.243      6.971
  Name = bg33_1_ligand
  12 active torsions:
  status: ('A' for Active; 'I' for Inactive)
    1  A    between atoms: C_1  and  C_2
    2  A    between atoms: C_2  and  C_3
    3  A    between atoms: C_3  and  C_4
    4  A    between atoms: C_4  and  C_5
    5  A    between atoms: C_5  and  C_6
    6  A    between atoms: C_5  and  O_8
    7  A    between atoms: C_6  and  C_7
    8  A    between atoms: O_8  and  C_9
    9  A    between atoms: C_9  and  C_11
   10  A    between atoms: C_12  and  C_13
   11  A    between atoms: C_16  and  O_17
   12  A    between atoms: O_17  and  C_18
                            x       y       z     vdW  Elec       q    Type
                         _______ _______ _______ _____ _____    ______ ____

>  <TORSDO>
F 9

$$$$
bg33_1_ligand
 OpenBabel10092621123D

 20 20  0  0  1  0  0  0  0  0999 V2000
   -5.4850    1.8470   -0.1980 C   0  0  0  0  0  0  0  0  0  0  0  0
   -6.2750    0.9420   -0.2260 O   0  0  0  0  0  0  0  0  0  0  0  0
   -5.8130    3.1110   -0.7250 C   0  0  0  0  0  3  0  0  0  0  0  0
   -6.6140    3.1560   -1.6930 C   0  0  0  0  0  3  0  0  0  0  0  0
   -6.9100    4.2960   -2.4080 C   0  0  0  0  0  0  0  0  0  0  0  0
   -8.1010    4.4650   -2.9970 C   0  0  0  0  0  3  0  0  0  0  0  0
   -8.4070    5.5800   -3.7070 C   0  0  0  0  0  3  0  0  0  0  0  0
   -7.4580    6.5560   -3.7710 C   0  0  0  0  0  0  0  0  0  0  0  0
   -6.2750    6.4460   -3.1990 C   0  0  0  0  0  3  0  0  0  0  0  0
   -5.9900    5.3010   -2.5380 C   0  0  0  0  0  3  0  0  0  0  0  0
   -7.6820    7.6570   -4.4470 O   0  0  0  0  0  0  0  0  0  0  0  0
   -6.5300    8.2780   -4.9060 C   0  0  0  0  0  1  0  0  0  0  0  0
   -4.3200    1.6700    0.3240 O   0  0  0  0  0  0  0  0  0  0  0  0
   -3.9210    0.4790    0.2160 C   0  0  1  0  0  3  0  0  0  0  0  0
   -3.1990    0.2410   -1.0670 C   0  0  0  0  0  2  0  0  0  0  0  0
   -2.9260   -1.1220   -1.3180 C   0  0  0  0  0  1  0  0  0  0  0  0
   -3.3990   -0.0930    1.3860 C   0  0  0  0  0  2  0  0  0  0  0  0
   -4.3780   -0.7070    2.2090 C   0  0  0  0  0  2  0  0  0  0  0  0
   -2.3450   -0.4740    3.5140 C   0  0  0  0  0  1  0  0  0  0  0  0
   -3.8560   -0.4840    3.5430 C   0  0  0  0  0  2  0  0  0  0  0  0
  1 13  1  0  0  0  0
  2  1  2  0  0  0  0
  3  1  1  0  0  0  0
  4  3  2  0  0  0  0
  5  4  1  0  0  0  0
  6  5  2  0  0  0  0
  7  6  1  0  0  0  0
  8  7  2  0  0  0  0
  8  9  1  0  0  0  0
  9 10  2  0  0  0  0
 10  5  1  0  0  0  0
 11  8  1  0  0  0  0
 12 11  1  0  0  0  0
 14 15  1  6  0  0  0
 14 13  1  0  0  0  0
 14 17  1  0  0  0  0
 16 15  1  0  0  0  0
 17 18  1  0  0  0  0
 18 20  1  0  0  0  0
 19 20  1  0  0  0  0
M  END
>  <MODEL>
6

>  <REMARK>
 VINA RESULT:      -3.5      1.936      7.889
  Name = bg33_1_ligand
  12 active torsions:
  status: ('A' for Active; 'I' for Inactive)
    1  A    between atoms: C_1  and  C_2
    2  A    between atoms: C_2  and  C_3
    3  A    between atoms: C_3  and  C_4
    4  A    between atoms: C_4  and  C_5
    5  A    between atoms: C_5  and  C_6
    6  A    between atoms: C_5  and  O_8
    7  A    between atoms: C_6  and  C_7
    8  A    between atoms: O_8  and  C_9
    9  A    between atoms: C_9  and  C_11
   10  A    between atoms: C_12  and  C_13
   11  A    between atoms: C_16  and  O_17
   12  A    between atoms: O_17  and  C_18
                            x       y       z     vdW  Elec       q    Type
                         _______ _______ _______ _____ _____    ______ ____

>  <TORSDO>
F 9

$$$$
bg33_1_ligand
 OpenBabel10092621123D

 20 20  0  0  1  0  0  0  0  0999 V2000
   -4.9080    1.8480   -0.5870 C   0  0  0  0  0  0  0  0  0  0  0  0
   -4.5190    1.0570   -1.4040 O   0  0  0  0  0  0  0  0  0  0  0  0
   -5.7650    2.9040   -0.9510 C   0  0  0  0  0  3  0  0  0  0  0  0
   -5.7350    3.3020   -2.1440 C   0  0  0  0  0  3  0  0  0  0  0  0
   -6.3970    4.4170   -2.6100 C   0  0  0  0  0  0  0  0  0  0  0  0
   -7.6750    4.3580   -3.0080 C   0  0  0  0  0  3  0  0  0  0  0  0
   -8.3400    5.4460   -3.4720 C   0  0  0  0  0  3  0  0  0  0  0  0
   -7.6640    6.6290   -3.4850 C   0  0  0  0  0  0  0  0  0  0  0  0
   -6.4110    6.7440   -3.0930 C   0  0  0  0  0  3  0  0  0  0  0  0
   -5.7660    5.6290   -2.6790 C   0  0  0  0  0  3  0  0  0  0  0  0
   -8.2410    7.7200   -3.9290 O   0  0  0  0  0  0  0  0  0  0  0  0
   -7.7850    8.1300   -5.1730 C   0  0  0  0  0  1  0  0  0  0  0  0
   -4.5460    1.7330    0.6450 O   0  0  0  0  0  0  0  0  0  0  0  0
   -4.8280    0.6030    1.1260 C   0  0  1  0  0  3  0  0  0  0  0  0
   -3.6580   -0.0330    1.7960 C   0  0  0  0  0  2  0  0  0  0  0  0
   -3.3170   -1.2950    1.2610 C   0  0  0  0  0  1  0  0  0  0  0  0
   -6.0820    0.5060    1.7490 C   0  0  0  0  0  2  0  0  0  0  0  0
   -6.0260    0.5820    3.1650 C   0  0  0  0  0  2  0  0  0  0  0  0
   -7.1050    2.7510    3.0190 C   0  0  0  0  0  1  0  0  0  0  0  0
   -7.2290    1.3200    3.4910 C   0  0  0  0  0  2  0  0  0  0  0  0
  1 13  1  0  0  0  0
  2  1  2  0  0  0  0
  3  1  1  0  0  0  0
  4  3  2  0  0  0  0
  5  4  1  0  0  0  0
  6  5  2  0  0  0  0
  7  6  1  0  0  0  0
  8  7  2  0  0  0  0
  8  9  1  0  0  0  0
  9 10  2  0  0  0  0
 10  5  1  0  0  0  0
 11  8  1  0  0  0  0
 12 11  1  0  0  0  0
 13 14  1  0  0  0  0
 14 17  1  1  0  0  0
 14 15  1  0  0  0  0
 16 15  1  0  0  0  0
 17 18  1  0  0  0  0
 18 20  1  0  0  0  0
 19 20  1  0  0  0  0
M  END
>  <MODEL>
7

>  <REMARK>
 VINA RESULT:      -3.5      1.829      7.689
  Name = bg33_1_ligand
  12 active torsions:
  status: ('A' for Active; 'I' for Inactive)
    1  A    between atoms: C_1  and  C_2
    2  A    between atoms: C_2  and  C_3
    3  A    between atoms: C_3  and  C_4
    4  A    between atoms: C_4  and  C_5
    5  A    between atoms: C_5  and  C_6
    6  A    between atoms: C_5  and  O_8
    7  A    between atoms: C_6  and  C_7
    8  A    between atoms: O_8  and  C_9
    9  A    between atoms: C_9  and  C_11
   10  A    between atoms: C_12  and  C_13
   11  A    between atoms: C_16  and  O_17
   12  A    between atoms: O_17  and  C_18
                            x       y       z     vdW  Elec       q    Type
                         _______ _______ _______ _____ _____    ______ ____

>  <TORSDO>
F 9

$$$$
bg33_1_ligand
 OpenBabel10092621123D

 20 20  0  0  1  0  0  0  0  0999 V2000
   -4.4250    0.1890   -0.3730 C   0  0  0  0  0  0  0  0  0  0  0  0
   -5.1630   -0.7350   -0.5890 O   0  0  0  0  0  0  0  0  0  0  0  0
   -3.1240    0.2180   -0.9110 C   0  0  0  0  0  3  0  0  0  0  0  0
   -2.9170   -0.4010   -1.9860 C   0  0  0  0  0  3  0  0  0  0  0  0
   -1.6740   -0.5900   -2.5490 C   0  0  0  0  0  0  0  0  0  0  0  0
   -0.9820    0.4270   -3.0800 C   0  0  0  0  0  3  0  0  0  0  0  0
    0.2420    0.2580   -3.6400 C   0  0  0  0  0  3  0  0  0  0  0  0
    0.7700   -0.9990   -3.6110 C   0  0  0  0  0  0  0  0  0  0  0  0
    0.1380   -2.0320   -3.0900 C   0  0  0  0  0  3  0  0  0  0  0  0
   -1.1000   -1.8320   -2.5810 C   0  0  0  0  0  3  0  0  0  0  0  0
    1.9450   -1.2380   -4.1420 O   0  0  0  0  0  0  0  0  0  0  0  0
    2.1580   -2.5720   -4.4560 C   0  0  0  0  0  1  0  0  0  0  0  0
   -4.8220    1.1750    0.3570 O   0  0  0  0  0  0  0  0  0  0  0  0
   -5.8440    1.7410   -0.1160 C   0  0  1  0  0  3  0  0  0  0  0  0
   -7.0040    1.6840    0.8190 C   0  0  0  0  0  2  0  0  0  0  0  0
   -6.6750    2.0270    2.1490 C   0  0  0  0  0  1  0  0  0  0  0  0
   -5.6070    2.9400   -0.8060 C   0  0  0  0  0  2  0  0  0  0  0  0
   -6.5670    3.2220   -1.8120 C   0  0  0  0  0  2  0  0  0  0  0  0
   -7.3090    5.2260   -2.9610 C   0  0  0  0  0  1  0  0  0  0  0  0
   -6.1490    4.5230   -2.2940 C   0  0  0  0  0  2  0  0  0  0  0  0
  1 13  1  0  0  0  0
  2  1  2  0  0  0  0
  3  1  1  0  0  0  0
  4  3  2  0  0  0  0
  5  4  1  0  0  0  0
  6  5  2  0  0  0  0
  7  8  2  0  0  0  0
  7  6  1  0  0  0  0
  8  9  1  0  0  0  0
  9 10  2  0  0  0  0
 10  5  1  0  0  0  0
 11  8  1  0  0  0  0
 12 11  1  0  0  0  0
 14 17  1  1  0  0  0
 14 13  1  0  0  0  0
 14 15  1  0  0  0  0
 15 16  1  0  0  0  0
 18 17  1  0  0  0  0
 19 20  1  0  0  0  0
 20 18  1  0  0  0  0
M  END
>  <MODEL>
8

>  <REMARK>
 VINA RESULT:      -3.4      4.504      6.344
  Name = bg33_1_ligand
  12 active torsions:
  status: ('A' for Active; 'I' for Inactive)
    1  A    between atoms: C_1  and  C_2
    2  A    between atoms: C_2  and  C_3
    3  A    between atoms: C_3  and  C_4
    4  A    between atoms: C_4  and  C_5
    5  A    between atoms: C_5  and  C_6
    6  A    between atoms: C_5  and  O_8
    7  A    between atoms: C_6  and  C_7
    8  A    between atoms: O_8  and  C_9
    9  A    between atoms: C_9  and  C_11
   10  A    between atoms: C_12  and  C_13
   11  A    between atoms: C_16  and  O_17
   12  A    between atoms: O_17  and  C_18
                            x       y       z     vdW  Elec       q    Type
                         _______ _______ _______ _____ _____    ______ ____

>  <TORSDO>
F 9

$$$$
bg33_1_ligand
 OpenBabel10092621123D

 20 20  0  0  1  0  0  0  0  0999 V2000
   -7.1510    4.6800   -2.7100 C   0  0  0  0  0  0  0  0  0  0  0  0
   -8.2480    4.9300   -3.1330 O   0  0  0  0  0  0  0  0  0  0  0  0
   -6.9000    3.4870   -2.0050 C   0  0  0  0  0  3  0  0  0  0  0  0
   -6.0660    3.5240   -1.0640 C   0  0  0  0  0  3  0  0  0  0  0  0
   -5.6050    2.4160   -0.3880 C   0  0  0  0  0  0  0  0  0  0  0  0
   -4.6290    1.6460   -0.8880 C   0  0  0  0  0  3  0  0  0  0  0  0
   -4.1650    0.5500   -0.2350 C   0  0  0  0  0  3  0  0  0  0  0  0
   -4.7080    0.2760    0.9840 C   0  0  0  0  0  0  0  0  0  0  0  0
   -5.6610    1.0080    1.5270 C   0  0  0  0  0  3  0  0  0  0  0  0
   -6.1290    2.0670    0.8270 C   0  0  0  0  0  3  0  0  0  0  0  0
   -4.3140   -0.7720    1.6670 O   0  0  0  0  0  0  0  0  0  0  0  0
   -3.0470   -0.6420    2.2140 C   0  0  0  0  0  1  0  0  0  0  0  0
   -6.1810    5.5080   -2.9040 O   0  0  0  0  0  0  0  0  0  0  0  0
   -6.1340    5.9220   -4.0930 C   0  0  1  0  0  3  0  0  0  0  0  0
   -6.0950    7.4110   -4.1700 C   0  0  0  0  0  2  0  0  0  0  0  0
   -5.7370    8.0310   -2.9520 C   0  0  0  0  0  1  0  0  0  0  0  0
   -5.3030    5.1920   -4.9560 C   0  0  0  0  0  2  0  0  0  0  0  0
   -3.9570    5.1040   -4.5170 C   0  0  0  0  0  2  0  0  0  0  0  0
   -4.2680    2.6980   -4.5040 C   0  0  0  0  0  1  0  0  0  0  0  0
   -3.5110    3.8580   -5.1080 C   0  0  0  0  0  2  0  0  0  0  0  0
  1  3  1  0  0  0  0
  2  1  2  0  0  0  0
  3  4  2  0  0  0  0
  4  5  1  0  0  0  0
  5 10  1  0  0  0  0
  6  5  2  0  0  0  0
  6  7  1  0  0  0  0
  7  8  2  0  0  0  0
  8  9  1  0  0  0  0
  8 11  1  0  0  0  0
 10  9  2  0  0  0  0
 11 12  1  0  0  0  0
 13  1  1  0  0  0  0
 14 17  1  1  0  0  0
 14 13  1  0  0  0  0
 15 14  1  0  0  0  0
 15 16  1  0  0  0  0
 17 18  1  0  0  0  0
 20 18  1  0  0  0  0
 20 19  1  0  0  0  0
M  END
>  <MODEL>
9

>  <REMARK>
 VINA RESULT:      -3.4      1.533      2.759
  Name = bg33_1_ligand
  12 active torsions:
  status: ('A' for Active; 'I' for Inactive)
    1  A    between atoms: C_1  and  C_2
    2  A    between atoms: C_2  and  C_3
    3  A    between atoms: C_3  and  C_4
    4  A    between atoms: C_4  and  C_5
    5  A    between atoms: C_5  and  C_6
    6  A    between atoms: C_5  and  O_8
    7  A    between atoms: C_6  and  C_7
    8  A    between atoms: O_8  and  C_9
    9  A    between atoms: C_9  and  C_11
   10  A    between atoms: C_12  and  C_13
   11  A    between atoms: C_16  and  O_17
   12  A    between atoms: O_17  and  C_18
                            x       y       z     vdW  Elec       q    Type
                         _______ _______ _______ _____ _____    ______ ____

>  <TORSDO>
F 9

$$$$
