bg33_2_ligand
     RDKit          3D

 44 44  0  0  0  0  0  0  0  0999 V2000
   -5.7074   -3.8058   -6.2836 C   0  0  0  0  0  0  0  0  0  0  0  0
   -5.0385   -3.4242   -7.6163 C   0  0  0  0  0  0  0  0  0  0  0  0
   -4.0572   -2.3015   -7.3980 C   0  0  0  0  0  0  0  0  0  0  0  0
   -3.3745   -1.8498   -8.7002 C   0  0  0  0  0  0  0  0  0  0  0  0
   -2.5892   -0.5864   -8.4930 C   0  0  1  0  0  0  0  0  0  0  0  0
   -3.5356    0.4874   -7.9947 C   0  0  0  0  0  0  0  0  0  0  0  0
   -4.3435    1.1070   -9.2018 C   0  0  0  0  0  0  0  0  0  0  0  0
   -1.4447   -0.8232   -7.6124 O   0  0  0  0  0  0  0  0  0  0  0  0
   -0.3053   -1.4854   -8.1536 C   0  0  0  0  0  0  0  0  0  0  0  0
   -0.3115   -1.7946   -9.3244 O   0  0  0  0  0  0  0  0  0  0  0  0
    0.8682   -1.8677   -7.3009 C   0  0  0  0  0  0  0  0  0  0  0  0
    1.1066   -1.3708   -6.0452 C   0  0  0  0  0  0  0  0  0  0  0  0
    2.2339   -1.9273   -5.2097 C   0  0  0  0  0  0  0  0  0  0  0  0
    2.8437   -3.1148   -5.5607 C   0  0  0  0  0  0  0  0  0  0  0  0
    3.8631   -3.5968   -4.7439 C   0  0  0  0  0  0  0  0  0  0  0  0
    4.2886   -2.9398   -3.5973 C   0  0  0  0  0  0  0  0  0  0  0  0
    5.2879   -3.4688   -2.7870 O   0  0  0  0  0  0  0  0  0  0  0  0
    6.4885   -3.8559   -3.4684 C   0  0  0  0  0  0  0  0  0  0  0  0
    3.6447   -1.7727   -3.2646 C   0  0  0  0  0  0  0  0  0  0  0  0
    2.6201   -1.2538   -4.0673 C   0  0  0  0  0  0  0  0  0  0  0  0
   -4.9677   -3.7455   -5.4717 H   0  0  0  0  0  0  0  0  0  0  0  0
   -6.5358   -3.1121   -6.0773 H   0  0  0  0  0  0  0  0  0  0  0  0
   -6.0967   -4.8326   -6.3495 H   0  0  0  0  0  0  0  0  0  0  0  0
   -4.5076   -4.2985   -8.0208 H   0  0  0  0  0  0  0  0  0  0  0  0
   -5.8113   -3.0952   -8.3267 H   0  0  0  0  0  0  0  0  0  0  0  0
   -4.5937   -1.4439   -6.9659 H   0  0  0  0  0  0  0  0  0  0  0  0
   -3.2725   -2.6722   -6.7222 H   0  0  0  0  0  0  0  0  0  0  0  0
   -2.6936   -2.6432   -9.0420 H   0  0  0  0  0  0  0  0  0  0  0  0
   -4.1535   -1.6557   -9.4522 H   0  0  0  0  0  0  0  0  0  0  0  0
   -2.1531   -0.2346   -9.4397 H   0  0  0  0  0  0  0  0  0  0  0  0
   -4.2402    0.0450   -7.2751 H   0  0  0  0  0  0  0  0  0  0  0  0
   -2.9514    1.2827   -7.5086 H   0  0  0  0  0  0  0  0  0  0  0  0
   -3.7034    1.8177   -9.7452 H   0  0  0  0  0  0  0  0  0  0  0  0
   -4.6591    0.3030   -9.8830 H   0  0  0  0  0  0  0  0  0  0  0  0
   -5.2308    1.6319   -8.8182 H   0  0  0  0  0  0  0  0  0  0  0  0
    1.5850   -2.5949   -7.7100 H   0  0  0  0  0  0  0  0  0  0  0  0
    0.4743   -0.5643   -5.6455 H   0  0  0  0  0  0  0  0  0  0  0  0
    2.5329   -3.6653   -6.4608 H   0  0  0  0  0  0  0  0  0  0  0  0
    4.3539   -4.5418   -5.0198 H   0  0  0  0  0  0  0  0  0  0  0  0
    7.3614   -3.4725   -2.9197 H   0  0  0  0  0  0  0  0  0  0  0  0
    6.5422   -4.9533   -3.5221 H   0  0  0  0  0  0  0  0  0  0  0  0
    6.4832   -3.4388   -4.4862 H   0  0  0  0  0  0  0  0  0  0  0  0
    3.9391   -1.2356   -2.3510 H   0  0  0  0  0  0  0  0  0  0  0  0
    2.1245   -0.3123   -3.7883 H   0  0  0  0  0  0  0  0  0  0  0  0
  2  1  1  0
  3  2  1  0
  4  3  1  0
  5  4  1  0
  6  5  1  0
  7  6  1  0
  8  5  1  0
  9  8  1  0
 10  9  2  0
 11  9  1  0
 12 11  2  3
 13 12  1  0
 14 13  1  0
 15 14  2  0
 16 15  1  0
 17 16  1  0
 18 17  1  0
 19 16  2  0
 20 19  1  0
 20 13  2  0
  1 21  1  0
  1 22  1  0
  1 23  1  0
  2 24  1  0
  2 25  1  0
  3 26  1  0
  3 27  1  0
  4 28  1  0
  4 29  1  0
  5 30  1  6
  6 31  1  0
  6 32  1  0
  7 33  1  0
  7 34  1  0
  7 35  1  0
 11 36  1  0
 12 37  1  0
 14 38  1  0
 15 39  1  0
 18 40  1  0
 18 41  1  0
 18 42  1  0
 19 43  1  0
 20 44  1  0
M  END
$$$$
