/Users/cafierom/python_mac/peptidebuilder/runs/octinoxate/folds/dock_stage/openfold3/bg33_1_o3cof_ligand.sdf.ligand.pdb
 OpenBabel10092620433D

 20 20  0  0  1  0  0  0  0  0999 V2000
   -1.6500   -2.1420    5.8380 C   0  0  0  0  0  0  0  0  0  0  0  0
   -1.3300   -2.8460    4.6070 C   0  0  0  0  0  0  0  0  0  0  0  0
   -1.8290   -4.2230    4.5530 C   0  0  0  0  0  0  0  0  0  0  0  0
   -0.7840   -5.2150    4.7580 C   0  0  0  0  0  0  0  0  0  0  0  0
   -1.1090   -6.5730    4.1990 C   0  0  1  0  0  0  0  0  0  0  0  0
   -2.1360   -6.5820    3.0770 C   0  0  0  0  0  0  0  0  0  0  0  0
   -2.2030   -7.8570    2.2820 C   0  0  0  0  0  0  0  0  0  0  0  0
    0.1200   -7.0660    3.7350 O   0  0  0  0  0  0  0  0  0  0  0  0
    0.4750   -8.3160    4.0620 C   0  0  0  0  0  0  0  0  0  0  0  0
   -0.3140   -9.0920    4.5470 O   0  0  0  0  0  0  0  0  0  0  0  0
    1.8990   -8.6260    3.7670 C   0  0  0  0  0  0  0  0  0  0  0  0
    2.2280   -9.9740    3.5570 C   0  0  0  0  0  0  0  0  0  0  0  0
    3.5790  -10.4280    3.3710 C   0  0  0  0  0  0  0  0  0  0  0  0
    4.6260   -9.5560    3.2460 C   0  0  0  0  0  0  0  0  0  0  0  0
    5.9180  -10.0340    3.0880 C   0  0  0  0  0  0  0  0  0  0  0  0
    6.1610  -11.3850    3.0530 C   0  0  0  0  0  0  0  0  0  0  0  0
    7.4680  -11.8160    2.9300 O   0  0  0  0  0  0  0  0  0  0  0  0
    7.6760  -13.1340    2.4260 C   0  0  0  0  0  0  0  0  0  0  0  0
    5.0890  -12.2610    3.1660 C   0  0  0  0  0  0  0  0  0  0  0  0
    3.8160  -11.7860    3.3190 C   0  0  0  0  0  0  0  0  0  0  0  0
  2  1  1  0  0  0  0
  3  2  1  0  0  0  0
  3  4  1  0  0  0  0
  5  6  1  6  0  0  0
  5  4  1  0  0  0  0
  7  6  1  0  0  0  0
  8  9  1  0  0  0  0
  8  5  1  0  0  0  0
  9 10  2  0  0  0  0
 11  9  1  0  0  0  0
 12 11  2  0  0  0  0
 13 12  1  0  0  0  0
 14 13  2  0  0  0  0
 15 14  1  0  0  0  0
 16 15  2  0  0  0  0
 16 19  1  0  0  0  0
 17 16  1  0  0  0  0
 18 17  1  0  0  0  0
 19 20  2  0  0  0  0
 20 13  1  0  0  0  0
M  END
$$$$
