bg33_3_ligand
     RDKit          3D

 44 44  0  0  0  0  0  0  0  0999 V2000
   -6.6927    3.4085   10.2131 C   0  0  0  0  0  0  0  0  0  0  0  0
   -6.0834    4.8246   10.1236 C   0  0  0  0  0  0  0  0  0  0  0  0
   -5.8749    5.1641    8.6822 C   0  0  0  0  0  0  0  0  0  0  0  0
   -4.8929    6.3384    8.4760 C   0  0  0  0  0  0  0  0  0  0  0  0
   -4.5464    6.3912    6.9989 C   0  0  1  0  0  0  0  0  0  0  0  0
   -5.3557    7.4014    6.3302 C   0  0  0  0  0  0  0  0  0  0  0  0
   -4.5948    8.6479    5.9910 C   0  0  0  0  0  0  0  0  0  0  0  0
   -3.1350    6.7255    6.8083 O   0  0  0  0  0  0  0  0  0  0  0  0
   -2.3049    5.7716    6.8148 C   0  0  0  0  0  0  0  0  0  0  0  0
   -2.6694    4.7229    7.2938 O   0  0  0  0  0  0  0  0  0  0  0  0
   -0.8564    5.9623    6.2532 C   0  0  0  0  0  0  0  0  0  0  0  0
   -0.6247    5.6972    4.9472 C   0  0  0  0  0  0  0  0  0  0  0  0
    0.6974    5.7533    4.3780 C   0  0  0  0  0  0  0  0  0  0  0  0
    1.6535    4.8154    4.6984 C   0  0  0  0  0  0  0  0  0  0  0  0
    2.8807    4.8166    4.1409 C   0  0  0  0  0  0  0  0  0  0  0  0
    3.1784    5.7979    3.2233 C   0  0  0  0  0  0  0  0  0  0  0  0
    4.3960    5.8934    2.6478 O   0  0  0  0  0  0  0  0  0  0  0  0
    5.1590    4.6998    2.6206 C   0  0  0  0  0  0  0  0  0  0  0  0
    2.2705    6.7614    2.9095 C   0  0  0  0  0  0  0  0  0  0  0  0
    1.0190    6.7317    3.4863 C   0  0  0  0  0  0  0  0  0  0  0  0
   -6.1256    2.7237    9.5655 H   0  0  0  0  0  0  0  0  0  0  0  0
   -6.6446    3.0537   11.2532 H   0  0  0  0  0  0  0  0  0  0  0  0
   -7.7420    3.4393    9.8843 H   0  0  0  0  0  0  0  0  0  0  0  0
   -6.7698    5.5528   10.5803 H   0  0  0  0  0  0  0  0  0  0  0  0
   -5.1233    4.8551   10.6595 H   0  0  0  0  0  0  0  0  0  0  0  0
   -5.4752    4.2780    8.1674 H   0  0  0  0  0  0  0  0  0  0  0  0
   -6.8480    5.4723    8.2722 H   0  0  0  0  0  0  0  0  0  0  0  0
   -5.3664    7.2822    8.7845 H   0  0  0  0  0  0  0  0  0  0  0  0
   -3.9857    6.1949    9.0813 H   0  0  0  0  0  0  0  0  0  0  0  0
   -4.7490    5.3988    6.5698 H   0  0  0  0  0  0  0  0  0  0  0  0
   -5.7510    6.9704    5.3987 H   0  0  0  0  0  0  0  0  0  0  0  0
   -6.1553    7.6900    7.0283 H   0  0  0  0  0  0  0  0  0  0  0  0
   -3.7938    8.4058    5.2771 H   0  0  0  0  0  0  0  0  0  0  0  0
   -5.2778    9.3832    5.5403 H   0  0  0  0  0  0  0  0  0  0  0  0
   -4.1547    9.0695    6.9068 H   0  0  0  0  0  0  0  0  0  0  0  0
   -0.0421    6.3054    6.9083 H   0  0  0  0  0  0  0  0  0  0  0  0
   -1.4726    5.4303    4.2993 H   0  0  0  0  0  0  0  0  0  0  0  0
    1.4068    4.0374    5.4358 H   0  0  0  0  0  0  0  0  0  0  0  0
    3.6246    4.0531    4.4123 H   0  0  0  0  0  0  0  0  0  0  0  0
    5.8534    4.7278    1.7680 H   0  0  0  0  0  0  0  0  0  0  0  0
    5.7304    4.6085    3.5561 H   0  0  0  0  0  0  0  0  0  0  0  0
    4.4854    3.8363    2.5166 H   0  0  0  0  0  0  0  0  0  0  0  0
    2.5337    7.5594    2.1996 H   0  0  0  0  0  0  0  0  0  0  0  0
    0.2771    7.5010    3.2257 H   0  0  0  0  0  0  0  0  0  0  0  0
  2  1  1  0
  3  2  1  0
  4  3  1  0
  5  4  1  0
  6  5  1  0
  7  6  1  0
  8  5  1  0
  9  8  1  0
 10  9  2  0
 11  9  1  0
 12 11  2  3
 13 12  1  0
 14 13  1  0
 15 14  2  0
 16 15  1  0
 17 16  1  0
 18 17  1  0
 19 16  2  0
 20 19  1  0
 20 13  2  0
  1 21  1  0
  1 22  1  0
  1 23  1  0
  2 24  1  0
  2 25  1  0
  3 26  1  0
  3 27  1  0
  4 28  1  0
  4 29  1  0
  5 30  1  6
  6 31  1  0
  6 32  1  0
  7 33  1  0
  7 34  1  0
  7 35  1  0
 11 36  1  0
 12 37  1  0
 14 38  1  0
 15 39  1  0
 18 40  1  0
 18 41  1  0
 18 42  1  0
 19 43  1  0
 20 44  1  0
M  END
$$$$
