bg33_2_ligand
     RDKit          3D

 20 20  0  0  0  0  0  0  0  0999 V2000
   -4.2830   -4.7030   -5.8630 C   0  0  0  0  0  0  0  0  0  0  0  0
   -4.6590   -3.5150   -6.6680 C   0  0  0  0  0  0  0  0  0  0  0  0
   -3.5280   -2.8230   -7.2830 C   0  0  0  0  0  0  0  0  0  0  0  0
   -3.8310   -1.4760   -7.8250 C   0  0  0  0  0  0  0  0  0  0  0  0
   -2.6800   -0.7710   -8.4700 C   0  0  1  0  0  0  0  0  0  0  0  0
   -3.0170    0.6630   -8.9260 C   0  0  0  0  0  0  0  0  0  0  0  0
   -3.9600    0.6830  -10.0440 C   0  0  0  0  0  0  0  0  0  0  0  0
   -1.5700   -0.7400   -7.5480 O   0  0  0  0  0  0  0  0  0  0  0  0
   -0.2880   -0.4910   -8.0270 C   0  0  0  0  0  0  0  0  0  0  0  0
   -0.1060   -0.0750   -9.1290 O   0  0  0  0  0  0  0  0  0  0  0  0
    0.8480   -0.7640   -7.1020 C   0  0  0  0  0  0  0  0  0  0  0  0
    0.7770   -1.8640   -6.2380 C   0  0  0  0  0  0  0  0  0  0  0  0
    1.8930   -2.3090   -5.4170 C   0  0  0  0  0  0  0  0  0  0  0  0
    1.7960   -3.5550   -4.8180 C   0  0  0  0  0  0  0  0  0  0  0  0
    2.8370   -4.0380   -4.0430 C   0  0  0  0  0  0  0  0  0  0  0  0
    4.0020   -3.2840   -3.8430 C   0  0  0  0  0  0  0  0  0  0  0  0
    4.9940   -3.8440   -3.0720 O   0  0  0  0  0  0  0  0  0  0  0  0
    6.1910   -3.1500   -2.8510 C   0  0  0  0  0  0  0  0  0  0  0  0
    4.0840   -2.0360   -4.4410 C   0  0  0  0  0  0  0  0  0  0  0  0
    3.0380   -1.5530   -5.2150 C   0  0  0  0  0  0  0  0  0  0  0  0
  2  1  1  0
  3  2  1  0
  4  3  1  0
  5  4  1  1
  6  5  1  0
  7  6  1  0
  8  5  1  0
  9  8  1  0
 10  9  2  0
 11  9  1  0
 12 11  2  3
 13 12  1  0
 14 13  1  0
 15 14  2  0
 16 15  1  0
 17 16  1  0
 18 17  1  0
 19 16  2  0
 20 19  1  0
 20 13  2  0
M  END
$$$$
