/Users/cafierom/python_mac/peptidebuilder/runs/octinoxate/folds/dock_stage/openfold3/bg33_4_o3cof_ligand.sdf.ligand.pdb
 OpenBabel10092620463D

 20 20  0  0  1  0  0  0  0  0999 V2000
   -6.0590    6.8620   -5.4340 C   0  0  0  0  0  0  0  0  0  0  0  0
   -6.1550    6.1800   -4.1270 C   0  0  0  0  0  0  0  0  0  0  0  0
   -6.4490    4.7400   -4.2390 C   0  0  0  0  0  0  0  0  0  0  0  0
   -5.6280    4.0020   -5.2170 C   0  0  0  0  0  0  0  0  0  0  0  0
   -6.0140    2.5660   -5.4800 C   0  0  1  0  0  0  0  0  0  0  0  0
   -6.3610    2.3810   -6.9370 C   0  0  0  0  0  0  0  0  0  0  0  0
   -6.1410    0.9800   -7.4490 C   0  0  0  0  0  0  0  0  0  0  0  0
   -4.9200    1.7240   -5.1500 O   0  0  0  0  0  0  0  0  0  0  0  0
   -4.8520    1.0590   -3.9900 C   0  0  0  0  0  0  0  0  0  0  0  0
   -5.3770    1.4540   -2.9830 O   0  0  0  0  0  0  0  0  0  0  0  0
   -4.0180   -0.1690   -4.1510 C   0  0  0  0  0  0  0  0  0  0  0  0
   -2.8900   -0.3300   -3.2570 C   0  0  0  0  0  0  0  0  0  0  0  0
   -3.0060   -1.1250   -2.0190 C   0  0  0  0  0  0  0  0  0  0  0  0
   -4.1730   -1.7710   -1.6610 C   0  0  0  0  0  0  0  0  0  0  0  0
   -4.2410   -2.5110   -0.4990 C   0  0  0  0  0  0  0  0  0  0  0  0
   -3.1440   -2.6230    0.3260 C   0  0  0  0  0  0  0  0  0  0  0  0
   -3.1540   -3.3150    1.5180 O   0  0  0  0  0  0  0  0  0  0  0  0
   -4.0890   -4.3460    1.6640 C   0  0  0  0  0  0  0  0  0  0  0  0
   -1.9610   -1.9720   -0.0410 C   0  0  0  0  0  0  0  0  0  0  0  0
   -1.9070   -1.2340   -1.1970 C   0  0  0  0  0  0  0  0  0  0  0  0
  1  2  1  0  0  0  0
  3  2  1  0  0  0  0
  4  3  2  0  0  0  0
  5  6  1  6  0  0  0
  5  4  1  0  0  0  0
  5  8  1  0  0  0  0
  7  6  1  0  0  0  0
  8  9  1  0  0  0  0
  9 10  2  0  0  0  0
 11  9  1  0  0  0  0
 11 12  1  0  0  0  0
 12 13  1  0  0  0  0
 13 14  2  0  0  0  0
 13 20  1  0  0  0  0
 14 15  1  0  0  0  0
 15 16  2  0  0  0  0
 16 17  1  0  0  0  0
 17 18  1  0  0  0  0
 19 16  1  0  0  0  0
 20 19  2  0  0  0  0
M  END
$$$$
