bg33_1_ligand
     RDKit          3D

 44 44  0  0  0  0  0  0  0  0999 V2000
   -0.0995   -3.0228    5.1353 C   0  0  0  0  0  0  0  0  0  0  0  0
   -1.1819   -3.8602    5.7789 C   0  0  0  0  0  0  0  0  0  0  0  0
   -0.9177   -5.2683    5.5594 C   0  0  0  0  0  0  0  0  0  0  0  0
   -1.5255   -5.5060    4.2996 C   0  0  0  0  0  0  0  0  0  0  0  0
   -1.0590   -6.6620    3.6556 C   0  0  2  0  0  0  0  0  0  0  0  0
   -1.9405   -7.8644    3.6397 C   0  0  0  0  0  0  0  0  0  0  0  0
   -1.9157   -8.5989    4.8457 C   0  0  0  0  0  0  0  0  0  0  0  0
    0.1470   -6.9581    3.8753 O   0  0  0  0  0  0  0  0  0  0  0  0
    0.6639   -7.6541    2.9203 C   0  0  0  0  0  0  0  0  0  0  0  0
    0.0306   -7.8679    1.9214 O   0  0  0  0  0  0  0  0  0  0  0  0
    1.9742   -8.1487    3.0685 C   0  0  0  0  0  0  0  0  0  0  0  0
    2.2301   -9.2860    2.5974 C   0  0  0  0  0  0  0  0  0  0  0  0
    3.4132   -9.9638    2.7962 C   0  0  0  0  0  0  0  0  0  0  0  0
    4.5934   -9.4305    2.4497 C   0  0  0  0  0  0  0  0  0  0  0  0
    5.7669  -10.0841    2.6366 C   0  0  0  0  0  0  0  0  0  0  0  0
    5.7075  -11.3088    3.2341 C   0  0  0  0  0  0  0  0  0  0  0  0
    6.8024  -12.0025    3.4372 O   0  0  0  0  0  0  0  0  0  0  0  0
    7.0123  -12.3426    4.7646 C   0  0  0  0  0  0  0  0  0  0  0  0
    4.5763  -11.8724    3.6043 C   0  0  0  0  0  0  0  0  0  0  0  0
    3.4220  -11.2099    3.3614 C   0  0  0  0  0  0  0  0  0  0  0  0
    0.0896   -2.1314    5.7515 H   0  0  0  0  0  0  0  0  0  0  0  0
    0.8236   -3.6156    5.0550 H   0  0  0  0  0  0  0  0  0  0  0  0
   -0.4244   -2.7123    4.1313 H   0  0  0  0  0  0  0  0  0  0  0  0
   -1.2040   -3.6582    6.8600 H   0  0  0  0  0  0  0  0  0  0  0  0
   -2.1523   -3.6014    5.3303 H   0  0  0  0  0  0  0  0  0  0  0  0
    0.1633   -5.4682    5.5225 H   0  0  0  0  0  0  0  0  0  0  0  0
   -1.3047   -5.9155    6.3603 H   0  0  0  0  0  0  0  0  0  0  0  0
   -2.6103   -5.6072    4.4513 H   0  0  0  0  0  0  0  0  0  0  0  0
   -1.2688   -4.6534    3.6537 H   0  0  0  0  0  0  0  0  0  0  0  0
   -1.1133   -6.2999    2.6183 H   0  0  0  0  0  0  0  0  0  0  0  0
   -2.9736   -7.5359    3.4536 H   0  0  0  0  0  0  0  0  0  0  0  0
   -1.5644   -8.5299    2.8487 H   0  0  0  0  0  0  0  0  0  0  0  0
   -1.9159   -7.9039    5.6983 H   0  0  0  0  0  0  0  0  0  0  0  0
   -2.8040   -9.2456    4.8995 H   0  0  0  0  0  0  0  0  0  0  0  0
   -1.0079   -9.2193    4.8786 H   0  0  0  0  0  0  0  0  0  0  0  0
    2.7490   -7.5588    3.5801 H   0  0  0  0  0  0  0  0  0  0  0  0
    1.4569   -9.7729    1.9850 H   0  0  0  0  0  0  0  0  0  0  0  0
    4.6104   -8.4276    1.9980 H   0  0  0  0  0  0  0  0  0  0  0  0
    6.7249   -9.6457    2.3202 H   0  0  0  0  0  0  0  0  0  0  0  0
    6.9755  -11.4356    5.3859 H   0  0  0  0  0  0  0  0  0  0  0  0
    6.2298  -13.0432    5.0918 H   0  0  0  0  0  0  0  0  0  0  0  0
    7.9982  -12.8191    4.8695 H   0  0  0  0  0  0  0  0  0  0  0  0
    4.5701  -12.8554    4.0979 H   0  0  0  0  0  0  0  0  0  0  0  0
    2.4658  -11.6854    3.6250 H   0  0  0  0  0  0  0  0  0  0  0  0
  2  1  1  0
  3  2  1  0
  4  3  1  0
  5  4  1  0
  6  5  1  0
  7  6  1  0
  8  5  1  0
  9  8  1  0
 10  9  2  0
 11  9  1  0
 12 11  2  3
 13 12  1  0
 14 13  1  0
 15 14  2  0
 16 15  1  0
 17 16  1  0
 18 17  1  0
 19 16  2  0
 20 13  2  0
 20 19  1  0
  1 21  1  0
  1 22  1  0
  1 23  1  0
  2 24  1  0
  2 25  1  0
  3 26  1  0
  3 27  1  0
  4 28  1  0
  4 29  1  0
  5 30  1  6
  6 31  1  0
  6 32  1  0
  7 33  1  0
  7 34  1  0
  7 35  1  0
 11 36  1  0
 12 37  1  0
 14 38  1  0
 15 39  1  0
 18 40  1  0
 18 41  1  0
 18 42  1  0
 19 43  1  0
 20 44  1  0
M  END
$$$$
