bg33_4_ligand
     RDKit          3D

 44 44  0  0  0  0  0  0  0  0999 V2000
   -4.8992    5.5418   -2.1484 C   0  0  0  0  0  0  0  0  0  0  0  0
   -5.2446    5.4357   -3.6085 C   0  0  0  0  0  0  0  0  0  0  0  0
   -5.2334    4.0022   -4.1345 C   0  0  0  0  0  0  0  0  0  0  0  0
   -5.3758    3.9419   -5.6338 C   0  0  0  0  0  0  0  0  0  0  0  0
   -5.7782    2.4649   -6.0949 C   0  0  1  0  0  0  0  0  0  0  0  0
   -5.1096    1.9875   -7.4169 C   0  0  0  0  0  0  0  0  0  0  0  0
   -5.8185    2.5906   -8.6730 C   0  0  0  0  0  0  0  0  0  0  0  0
   -5.2618    1.5517   -5.1870 O   0  0  0  0  0  0  0  0  0  0  0  0
   -6.0294    0.3461   -4.8632 C   0  0  0  0  0  0  0  0  0  0  0  0
   -6.9766   -0.0312   -5.6175 O   0  0  0  0  0  0  0  0  0  0  0  0
   -5.5387   -0.4462   -3.7245 C   0  0  0  0  0  0  0  0  0  0  0  0
   -4.5973    0.1671   -2.8323 C   0  0  0  0  0  0  0  0  0  0  0  0
   -3.9681   -0.6256   -1.6976 C   0  0  0  0  0  0  0  0  0  0  0  0
   -4.6242   -1.6541   -1.0557 C   0  0  0  0  0  0  0  0  0  0  0  0
   -4.0007   -2.3881    0.0114 C   0  0  0  0  0  0  0  0  0  0  0  0
   -2.6898   -2.1098    0.4375 C   0  0  0  0  0  0  0  0  0  0  0  0
   -2.0192   -2.8167    1.4158 O   0  0  0  0  0  0  0  0  0  0  0  0
   -2.6767   -3.9587    2.0209 C   0  0  0  0  0  0  0  0  0  0  0  0
   -2.0436   -1.0778   -0.2388 C   0  0  0  0  0  0  0  0  0  0  0  0
   -2.6539   -0.3691   -1.2822 C   0  0  0  0  0  0  0  0  0  0  0  0
   -5.6769    6.1209   -1.6289 H   0  0  0  0  0  0  0  0  0  0  0  0
   -4.8392    4.5340   -1.7117 H   0  0  0  0  0  0  0  0  0  0  0  0
   -3.9291    6.0481   -2.0369 H   0  0  0  0  0  0  0  0  0  0  0  0
   -6.2506    5.8541   -3.7596 H   0  0  0  0  0  0  0  0  0  0  0  0
   -4.4741    5.9903   -4.1643 H   0  0  0  0  0  0  0  0  0  0  0  0
   -4.2821    3.5285   -3.8502 H   0  0  0  0  0  0  0  0  0  0  0  0
   -6.0923    3.4752   -3.6934 H   0  0  0  0  0  0  0  0  0  0  0  0
   -6.1576    4.6470   -5.9525 H   0  0  0  0  0  0  0  0  0  0  0  0
   -4.4143    4.2109   -6.0953 H   0  0  0  0  0  0  0  0  0  0  0  0
   -6.8730    2.5076   -6.1920 H   0  0  0  0  0  0  0  0  0  0  0  0
   -4.0554    2.3016   -7.4172 H   0  0  0  0  0  0  0  0  0  0  0  0
   -5.1941    0.8919   -7.4681 H   0  0  0  0  0  0  0  0  0  0  0  0
   -6.7714    3.0497   -8.3710 H   0  0  0  0  0  0  0  0  0  0  0  0
   -5.1711    3.3547   -9.1278 H   0  0  0  0  0  0  0  0  0  0  0  0
   -6.0119    1.7915   -9.4039 H   0  0  0  0  0  0  0  0  0  0  0  0
   -5.8833   -1.4780   -3.5621 H   0  0  0  0  0  0  0  0  0  0  0  0
   -4.3274    1.2244   -2.9709 H   0  0  0  0  0  0  0  0  0  0  0  0
   -5.6457   -1.9185   -1.3664 H   0  0  0  0  0  0  0  0  0  0  0  0
   -4.5651   -3.1905    0.5089 H   0  0  0  0  0  0  0  0  0  0  0  0
   -3.7621   -3.7829    2.0518 H   0  0  0  0  0  0  0  0  0  0  0  0
   -2.4679   -4.8598    1.4256 H   0  0  0  0  0  0  0  0  0  0  0  0
   -2.2988   -4.0995    3.0443 H   0  0  0  0  0  0  0  0  0  0  0  0
   -1.0184   -0.8097    0.0565 H   0  0  0  0  0  0  0  0  0  0  0  0
   -2.0807    0.4176   -1.7944 H   0  0  0  0  0  0  0  0  0  0  0  0
  2  1  1  0
  3  2  1  0
  4  3  1  0
  5  4  1  0
  6  5  1  0
  7  6  1  0
  8  5  1  0
  9  8  1  0
 10  9  2  0
 11  9  1  0
 12 11  2  3
 13 12  1  0
 14 13  1  0
 15 14  2  0
 16 15  1  0
 17 16  1  0
 18 17  1  0
 19 16  2  0
 20 19  1  0
 20 13  2  0
  1 21  1  0
  1 22  1  0
  1 23  1  0
  2 24  1  0
  2 25  1  0
  3 26  1  0
  3 27  1  0
  4 28  1  0
  4 29  1  0
  5 30  1  6
  6 31  1  0
  6 32  1  0
  7 33  1  0
  7 34  1  0
  7 35  1  0
 11 36  1  0
 12 37  1  0
 14 38  1  0
 15 39  1  0
 18 40  1  0
 18 41  1  0
 18 42  1  0
 19 43  1  0
 20 44  1  0
M  END
$$$$
