bg33_3_ligand
     RDKit          3D

 20 20  0  0  0  0  0  0  0  0999 V2000
   -4.4750    3.1350   10.0670 C   0  0  0  0  0  0  0  0  0  0  0  0
   -4.2210    4.5660    9.8890 C   0  0  0  0  0  0  0  0  0  0  0  0
   -4.8990    5.1380    8.7230 C   0  0  0  0  0  0  0  0  0  0  0  0
   -4.5930    6.5530    8.4980 C   0  0  0  0  0  0  0  0  0  0  0  0
   -4.7370    7.0590    7.0760 C   0  0  1  0  0  0  0  0  0  0  0  0
   -5.2010    8.4950    7.0460 C   0  0  0  0  0  0  0  0  0  0  0  0
   -5.5880    8.9890    5.7200 C   0  0  0  0  0  0  0  0  0  0  0  0
   -3.4850    7.0110    6.4480 O   0  0  0  0  0  0  0  0  0  0  0  0
   -3.0950    5.9510    5.7600 C   0  0  0  0  0  0  0  0  0  0  0  0
   -3.7670    4.9680    5.6040 O   0  0  0  0  0  0  0  0  0  0  0  0
   -1.7180    6.1470    5.2540 C   0  0  0  0  0  0  0  0  0  0  0  0
   -0.8970    5.0240    5.0360 C   0  0  0  0  0  0  0  0  0  0  0  0
    0.4750    5.1400    4.6020 C   0  0  0  0  0  0  0  0  0  0  0  0
    1.2910    4.0420    4.6940 C   0  0  0  0  0  0  0  0  0  0  0  0
    2.6070    4.1300    4.3070 C   0  0  0  0  0  0  0  0  0  0  0  0
    3.1290    5.3270    3.8130 C   0  0  0  0  0  0  0  0  0  0  0  0
    4.4480    5.3460    3.4360 O   0  0  0  0  0  0  0  0  0  0  0  0
    5.0600    6.5830    3.2340 C   0  0  0  0  0  0  0  0  0  0  0  0
    2.2980    6.4090    3.7210 C   0  0  0  0  0  0  0  0  0  0  0  0
    0.9910    6.3120    4.1090 C   0  0  0  0  0  0  0  0  0  0  0  0
  2  1  1  0
  3  2  1  0
  4  3  1  0
  5  4  1  1
  6  5  1  0
  7  6  1  0
  8  5  1  0
  9  8  1  0
 10  9  2  0
 11  9  1  0
 12 11  2  3
 13 12  1  0
 14 13  1  0
 15 14  2  0
 16 15  1  0
 17 16  1  0
 18 17  1  0
 19 16  2  0
 20 19  1  0
 20 13  2  0
M  END
$$$$
