/Users/cafierom/python_mac/peptidebuilder/runs/octinoxate/folds/dock_stage/openfold3/orig_f12_o3cof_ligand.sdf.ligand.pdb
 OpenBabel10092620373D

 20 20  0  0  1  0  0  0  0  0999 V2000
   10.1450    3.3980    5.5280 C   0  0  0  0  0  0  0  0  0  0  0  0
    9.6330    2.0830    5.9480 C   0  0  0  0  0  0  0  0  0  0  0  0
    9.9970    0.9690    5.0570 C   0  0  0  0  0  0  0  0  0  0  0  0
    9.2380    0.8700    3.7910 C   0  0  0  0  0  0  0  0  0  0  0  0
    7.8700    0.2100    3.8320 C   0  0  1  0  0  0  0  0  0  0  0  0
    7.1350    0.2270    2.4840 C   0  0  0  0  0  0  0  0  0  0  0  0
    5.8090    0.8680    2.4740 C   0  0  0  0  0  0  0  0  0  0  0  0
    7.9950   -1.1680    4.1500 O   0  0  0  0  0  0  0  0  0  0  0  0
    7.6760   -1.6100    5.3440 C   0  0  0  0  0  0  0  0  0  0  0  0
    7.5450   -0.8880    6.2820 O   0  0  0  0  0  0  0  0  0  0  0  0
    7.5550   -3.0740    5.3220 C   0  0  0  0  0  0  0  0  0  0  0  0
    7.7330   -3.7950    6.5000 C   0  0  0  0  0  0  0  0  0  0  0  0
    7.4960   -5.2130    6.6310 C   0  0  0  0  0  0  0  0  0  0  0  0
    7.9270   -5.8000    7.7830 C   0  0  0  0  0  0  0  0  0  0  0  0
    7.7310   -7.1180    7.9850 C   0  0  0  0  0  0  0  0  0  0  0  0
    7.0860   -7.8990    7.0330 C   0  0  0  0  0  0  0  0  0  0  0  0
    6.9120   -9.2160    7.3140 O   0  0  0  0  0  0  0  0  0  0  0  0
    6.2550  -10.0230    6.3550 C   0  0  0  0  0  0  0  0  0  0  0  0
    6.6440   -7.3090    5.8770 C   0  0  0  0  0  0  0  0  0  0  0  0
    6.8510   -5.9670    5.6850 C   0  0  0  0  0  0  0  0  0  0  0  0
  1  2  1  0  0  0  0
  3  2  1  0  0  0  0
  4  5  1  0  0  0  0
  4  3  1  0  0  0  0
  5  6  1  6  0  0  0
  5  8  1  0  0  0  0
  7  6  1  0  0  0  0
  8  9  1  0  0  0  0
  9 10  2  0  0  0  0
 11  9  1  0  0  0  0
 11 12  2  0  0  0  0
 12 13  1  0  0  0  0
 13 14  1  0  0  0  0
 14 15  2  0  0  0  0
 16 17  1  0  0  0  0
 16 15  1  0  0  0  0
 18 17  1  0  0  0  0
 19 16  2  0  0  0  0
 20 19  1  0  0  0  0
 20 13  2  0  0  0  0
M  END
$$$$
