s2_esm2_control_ligand
     RDKit          3D

 44 44  0  0  0  0  0  0  0  0999 V2000
  -10.2659   12.6813   -3.0698 C   0  0  0  0  0  0  0  0  0  0  0  0
  -11.1092   11.6178   -2.3755 C   0  0  0  0  0  0  0  0  0  0  0  0
  -10.8206   10.2535   -2.9279 C   0  0  0  0  0  0  0  0  0  0  0  0
  -11.5697    9.1808   -2.2001 C   0  0  0  0  0  0  0  0  0  0  0  0
  -11.3625    7.7967   -2.7653 C   0  0  2  0  0  0  0  0  0  0  0  0
  -11.9843    6.7584   -1.8340 C   0  0  0  0  0  0  0  0  0  0  0  0
  -13.0495    5.8943   -2.4860 C   0  0  0  0  0  0  0  0  0  0  0  0
   -9.9753    7.5288   -2.8754 O   0  0  0  0  0  0  0  0  0  0  0  0
   -9.4253    7.3734   -4.0972 C   0  0  0  0  0  0  0  0  0  0  0  0
  -10.1010    7.4209   -5.0904 O   0  0  0  0  0  0  0  0  0  0  0  0
   -7.9545    7.1675   -4.1151 C   0  0  0  0  0  0  0  0  0  0  0  0
   -7.3307    7.0426   -5.3202 C   0  0  0  0  0  0  0  0  0  0  0  0
   -5.8712    6.8783   -5.4699 C   0  0  0  0  0  0  0  0  0  0  0  0
   -5.3604    6.7164   -6.7449 C   0  0  0  0  0  0  0  0  0  0  0  0
   -4.0002    6.5741   -6.9474 C   0  0  0  0  0  0  0  0  0  0  0  0
   -3.1341    6.5911   -5.8854 C   0  0  0  0  0  0  0  0  0  0  0  0
   -1.8115    6.4517   -6.1383 O   0  0  0  0  0  0  0  0  0  0  0  0
   -0.8717    6.5590   -5.0768 C   0  0  0  0  0  0  0  0  0  0  0  0
   -3.6377    6.7547   -4.6145 C   0  0  0  0  0  0  0  0  0  0  0  0
   -5.0047    6.8959   -4.4109 C   0  0  0  0  0  0  0  0  0  0  0  0
  -10.7387   13.6661   -2.9408 H   0  0  0  0  0  0  0  0  0  0  0  0
   -9.2589   12.6974   -2.6274 H   0  0  0  0  0  0  0  0  0  0  0  0
  -10.1916   12.4479   -4.1421 H   0  0  0  0  0  0  0  0  0  0  0  0
  -10.8817   11.6250   -1.2993 H   0  0  0  0  0  0  0  0  0  0  0  0
  -12.1712   11.8468   -2.5479 H   0  0  0  0  0  0  0  0  0  0  0  0
  -11.1110   10.2317   -3.9886 H   0  0  0  0  0  0  0  0  0  0  0  0
   -9.7450   10.0588   -2.8044 H   0  0  0  0  0  0  0  0  0  0  0  0
  -11.2395    9.1791   -1.1508 H   0  0  0  0  0  0  0  0  0  0  0  0
  -12.6400    9.4113   -2.3065 H   0  0  0  0  0  0  0  0  0  0  0  0
  -11.8372    7.7442   -3.7563 H   0  0  0  0  0  0  0  0  0  0  0  0
  -11.1829    6.1000   -1.4677 H   0  0  0  0  0  0  0  0  0  0  0  0
  -12.4811    7.3161   -1.0264 H   0  0  0  0  0  0  0  0  0  0  0  0
  -14.0453    6.2913   -2.2394 H   0  0  0  0  0  0  0  0  0  0  0  0
  -12.9113    5.9029   -3.5773 H   0  0  0  0  0  0  0  0  0  0  0  0
  -12.9636    4.8628   -2.1135 H   0  0  0  0  0  0  0  0  0  0  0  0
   -7.3820    7.1170   -3.1772 H   0  0  0  0  0  0  0  0  0  0  0  0
   -7.9480    7.0653   -6.2304 H   0  0  0  0  0  0  0  0  0  0  0  0
   -6.0434    6.7007   -7.6070 H   0  0  0  0  0  0  0  0  0  0  0  0
   -3.6105    6.4464   -7.9680 H   0  0  0  0  0  0  0  0  0  0  0  0
   -1.2923    7.1856   -4.2766 H   0  0  0  0  0  0  0  0  0  0  0  0
   -0.6507    5.5571   -4.6801 H   0  0  0  0  0  0  0  0  0  0  0  0
    0.0551    7.0172   -5.4525 H   0  0  0  0  0  0  0  0  0  0  0  0
   -2.9526    6.7738   -3.7541 H   0  0  0  0  0  0  0  0  0  0  0  0
   -5.3938    7.0229   -3.3899 H   0  0  0  0  0  0  0  0  0  0  0  0
  2  1  1  0
  3  2  1  0
  4  3  1  0
  5  4  1  0
  6  5  1  0
  7  6  1  0
  8  5  1  0
  9  8  1  0
 10  9  2  0
 11  9  1  0
 12 11  2  3
 13 12  1  0
 14 13  1  0
 15 14  2  0
 16 15  1  0
 17 16  1  0
 18 17  1  0
 19 16  2  0
 20 19  1  0
 20 13  2  0
  1 21  1  0
  1 22  1  0
  1 23  1  0
  2 24  1  0
  2 25  1  0
  3 26  1  0
  3 27  1  0
  4 28  1  0
  4 29  1  0
  5 30  1  6
  6 31  1  0
  6 32  1  0
  7 33  1  0
  7 34  1  0
  7 35  1  0
 11 36  1  0
 12 37  1  0
 14 38  1  0
 15 39  1  0
 18 40  1  0
 18 41  1  0
 18 42  1  0
 19 43  1  0
 20 44  1  0
M  END
$$$$
