/Users/cafierom/python_mac/peptidebuilder/runs/octinoxate/folds/dock_stage/openfold3/s3_esm2_f4_o3cof_ligand.sdf.ligand.pdb
 OpenBabel10092620383D

 20 20  0  0  1  0  0  0  0  0999 V2000
   -7.0060   -5.0140    5.6090 C   0  0  0  0  0  0  0  0  0  0  0  0
   -7.3650   -3.6580    5.0610 C   0  0  0  0  0  0  0  0  0  0  0  0
   -7.7350   -3.7100    3.6390 C   0  0  0  0  0  0  0  0  0  0  0  0
   -8.0710   -2.3980    3.0310 C   0  0  0  0  0  0  0  0  0  0  0  0
   -8.4380   -2.4570    1.5640 C   0  0  1  0  0  0  0  0  0  0  0  0
   -9.0840   -1.1720    1.0750 C   0  0  0  0  0  0  0  0  0  0  0  0
   -8.0390   -0.0420    1.0650 C   0  0  0  0  0  0  0  0  0  0  0  0
   -7.2770   -2.6040    0.8020 O   0  0  0  0  0  0  0  0  0  0  0  0
   -6.9840   -3.7780    0.2190 C   0  0  0  0  0  0  0  0  0  0  0  0
   -7.6800   -4.7560    0.3650 O   0  0  0  0  0  0  0  0  0  0  0  0
   -5.7430   -3.6870   -0.5850 C   0  0  0  0  0  0  0  0  0  0  0  0
   -5.2430   -4.8210   -1.2100 C   0  0  0  0  0  0  0  0  0  0  0  0
   -4.0290   -4.7680   -2.0110 C   0  0  0  0  0  0  0  0  0  0  0  0
   -3.8740   -5.6170   -3.0870 C   0  0  0  0  0  0  0  0  0  0  0  0
   -2.7430   -5.5490   -3.8710 C   0  0  0  0  0  0  0  0  0  0  0  0
   -1.7170   -4.6400   -3.5780 C   0  0  0  0  0  0  0  0  0  0  0  0
   -0.6210   -4.6230   -4.4000 O   0  0  0  0  0  0  0  0  0  0  0  0
    0.5140   -3.8690   -4.0120 C   0  0  0  0  0  0  0  0  0  0  0  0
   -1.8690   -3.8100   -2.4910 C   0  0  0  0  0  0  0  0  0  0  0  0
   -3.0080   -3.8750   -1.7200 C   0  0  0  0  0  0  0  0  0  0  0  0
  2  1  1  0  0  0  0
  3  2  1  0  0  0  0
  4  3  1  0  0  0  0
  5  6  1  6  0  0  0
  5  4  1  0  0  0  0
  7  6  1  0  0  0  0
  8  5  1  0  0  0  0
  9 10  2  0  0  0  0
  9  8  1  0  0  0  0
 11  9  1  0  0  0  0
 12 11  2  0  0  0  0
 13 20  1  0  0  0  0
 13 12  1  0  0  0  0
 14 13  2  0  0  0  0
 15 16  2  0  0  0  0
 15 14  1  0  0  0  0
 16 19  1  0  0  0  0
 17 18  1  0  0  0  0
 17 16  1  0  0  0  0
 19 20  2  0  0  0  0
M  END
$$$$
