/Users/cafierom/python_mac/peptidebuilder/runs/octinoxate/folds/dock_stage/openfold3/s3_orig_f12_o3cof_ligand.sdf.ligand.pdb
 OpenBabel10092620393D

 20 20  0  0  1  0  0  0  0  0999 V2000
    8.7130    8.8250    2.0960 C   0  0  0  0  0  0  0  0  0  0  0  0
    9.1420    7.5990    2.7770 C   0  0  0  0  0  0  0  0  0  0  0  0
    8.7100    6.3800    2.1160 C   0  0  0  0  0  0  0  0  0  0  0  0
    7.5910    5.6910    2.7750 C   0  0  0  0  0  0  0  0  0  0  0  0
    7.2200    4.3800    2.2190 C   0  0  1  0  0  0  0  0  0  0  0  0
    5.8070    3.9540    2.5550 C   0  0  0  0  0  0  0  0  0  0  0  0
    4.7480    4.6780    1.8060 C   0  0  0  0  0  0  0  0  0  0  0  0
    7.4200    4.4320    0.8510 O   0  0  0  0  0  0  0  0  0  0  0  0
    7.2150    3.4390    0.0890 C   0  0  0  0  0  0  0  0  0  0  0  0
    6.3720    2.6270    0.3220 O   0  0  0  0  0  0  0  0  0  0  0  0
    8.0590    3.4690   -1.0740 C   0  0  0  0  0  0  0  0  0  0  0  0
    8.1710    2.3620   -1.8270 C   0  0  0  0  0  0  0  0  0  0  0  0
    8.8900    2.1940   -3.0280 C   0  0  0  0  0  0  0  0  0  0  0  0
    9.6060    3.1350   -3.6430 C   0  0  0  0  0  0  0  0  0  0  0  0
   10.2490    2.8780   -4.8030 C   0  0  0  0  0  0  0  0  0  0  0  0
   10.1720    1.6480   -5.3730 C   0  0  0  0  0  0  0  0  0  0  0  0
   10.8150    1.4100   -6.5380 O   0  0  0  0  0  0  0  0  0  0  0  0
   10.4830    0.2150   -7.2060 C   0  0  0  0  0  0  0  0  0  0  0  0
    9.4490    0.6790   -4.7530 C   0  0  0  0  0  0  0  0  0  0  0  0
    8.8130    0.9560   -3.5920 C   0  0  0  0  0  0  0  0  0  0  0  0
  1  2  1  0  0  0  0
  3  4  1  0  0  0  0
  3  2  1  0  0  0  0
  5  6  1  6  0  0  0
  5  4  1  0  0  0  0
  7  6  1  0  0  0  0
  8  5  1  0  0  0  0
  9 10  2  0  0  0  0
  9  8  1  0  0  0  0
 11  9  1  0  0  0  0
 12 11  2  0  0  0  0
 13 12  1  0  0  0  0
 14 13  2  0  0  0  0
 15 14  1  0  0  0  0
 16 15  2  0  0  0  0
 16 19  1  0  0  0  0
 17 16  1  0  0  0  0
 18 17  1  0  0  0  0
 19 20  2  0  0  0  0
 20 13  1  0  0  0  0
M  END
$$$$
