shuffle_control_ligand
     RDKit          3D

 44 44  0  0  0  0  0  0  0  0999 V2000
   -2.8310    1.0017   10.0812 C   0  0  0  0  0  0  0  0  0  0  0  0
   -2.5025   -0.3779    9.5828 C   0  0  0  0  0  0  0  0  0  0  0  0
   -1.5112   -0.3464    8.4492 C   0  0  0  0  0  0  0  0  0  0  0  0
   -1.1365   -1.7185    7.9894 C   0  0  0  0  0  0  0  0  0  0  0  0
   -0.2176   -1.7332    6.7895 C   0  0  2  0  0  0  0  0  0  0  0  0
    0.3380   -3.1371    6.6075 C   0  0  0  0  0  0  0  0  0  0  0  0
    1.6066   -3.2180    5.8293 C   0  0  0  0  0  0  0  0  0  0  0  0
    0.8377   -0.8228    7.0208 O   0  0  0  0  0  0  0  0  0  0  0  0
    0.9774    0.2604    6.2495 C   0  0  0  0  0  0  0  0  0  0  0  0
    0.2382    0.4791    5.3271 O   0  0  0  0  0  0  0  0  0  0  0  0
    2.1088    1.1343    6.6414 C   0  0  0  0  0  0  0  0  0  0  0  0
    2.3935    2.2383    5.9438 C   0  0  0  0  0  0  0  0  0  0  0  0
    3.5231    3.1458    6.2549 C   0  0  0  0  0  0  0  0  0  0  0  0
    4.2472    3.0488    7.4142 C   0  0  0  0  0  0  0  0  0  0  0  0
    5.3015    3.9209    7.6657 C   0  0  0  0  0  0  0  0  0  0  0  0
    5.6309    4.8933    6.7579 C   0  0  0  0  0  0  0  0  0  0  0  0
    6.6565    5.7733    6.9427 O   0  0  0  0  0  0  0  0  0  0  0  0
    7.4282    5.7236    8.1277 C   0  0  0  0  0  0  0  0  0  0  0  0
    4.9070    4.9963    5.5956 C   0  0  0  0  0  0  0  0  0  0  0  0
    3.8521    4.1270    5.3437 C   0  0  0  0  0  0  0  0  0  0  0  0
   -3.2179    0.9378   11.1090 H   0  0  0  0  0  0  0  0  0  0  0  0
   -1.9225    1.6218   10.0694 H   0  0  0  0  0  0  0  0  0  0  0  0
   -3.5929    1.4550    9.4301 H   0  0  0  0  0  0  0  0  0  0  0  0
   -2.0764   -0.9629   10.4112 H   0  0  0  0  0  0  0  0  0  0  0  0
   -3.4311   -0.8349    9.2100 H   0  0  0  0  0  0  0  0  0  0  0  0
   -1.9555    0.2013    7.6050 H   0  0  0  0  0  0  0  0  0  0  0  0
   -0.5987    0.1496    8.8118 H   0  0  0  0  0  0  0  0  0  0  0  0
   -0.6316   -2.2357    8.8186 H   0  0  0  0  0  0  0  0  0  0  0  0
   -2.0678   -2.2181    7.6843 H   0  0  0  0  0  0  0  0  0  0  0  0
   -0.7646   -1.4416    5.8808 H   0  0  0  0  0  0  0  0  0  0  0  0
    0.5220   -3.5629    7.6049 H   0  0  0  0  0  0  0  0  0  0  0  0
   -0.4139   -3.6917    6.0270 H   0  0  0  0  0  0  0  0  0  0  0  0
    2.1812   -2.2903    5.9673 H   0  0  0  0  0  0  0  0  0  0  0  0
    2.2004   -4.0734    6.1840 H   0  0  0  0  0  0  0  0  0  0  0  0
    1.3744   -3.3502    4.7622 H   0  0  0  0  0  0  0  0  0  0  0  0
    2.7211    0.8712    7.5166 H   0  0  0  0  0  0  0  0  0  0  0  0
    1.7507    2.4883    5.0869 H   0  0  0  0  0  0  0  0  0  0  0  0
    3.9925    2.2744    8.1528 H   0  0  0  0  0  0  0  0  0  0  0  0
    5.8749    3.8292    8.5999 H   0  0  0  0  0  0  0  0  0  0  0  0
    7.1435    6.5577    8.7859 H   0  0  0  0  0  0  0  0  0  0  0  0
    7.2456    4.7699    8.6445 H   0  0  0  0  0  0  0  0  0  0  0  0
    8.4955    5.8046    7.8739 H   0  0  0  0  0  0  0  0  0  0  0  0
    5.1636    5.7720    4.8590 H   0  0  0  0  0  0  0  0  0  0  0  0
    3.2761    4.2225    4.4114 H   0  0  0  0  0  0  0  0  0  0  0  0
  2  1  1  0
  3  2  1  0
  4  3  1  0
  5  4  1  0
  6  5  1  0
  7  6  1  0
  8  5  1  0
  9  8  1  0
 10  9  2  0
 11  9  1  0
 12 11  2  3
 13 12  1  0
 14 13  1  0
 15 14  2  0
 16 15  1  0
 17 16  1  0
 18 17  1  0
 19 16  2  0
 20 19  1  0
 20 13  2  0
  1 21  1  0
  1 22  1  0
  1 23  1  0
  2 24  1  0
  2 25  1  0
  3 26  1  0
  3 27  1  0
  4 28  1  0
  4 29  1  0
  5 30  1  6
  6 31  1  0
  6 32  1  0
  7 33  1  0
  7 34  1  0
  7 35  1  0
 11 36  1  0
 12 37  1  0
 14 38  1  0
 15 39  1  0
 18 40  1  0
 18 41  1  0
 18 42  1  0
 19 43  1  0
 20 44  1  0
M  END
$$$$
