bg33_2_pose0_reference
     RDKit          3D

 20 20  0  0  0  0  0  0  0  0999 V2000
    2.7400   -1.4940   -6.0820 C   0  0  0  0  0  0  0  0  0  0  0  0
    3.7810   -2.5670   -5.7160 C   0  0  0  0  0  0  0  0  0  0  0  0
    4.5680   -2.1310   -4.5070 C   0  0  0  0  0  0  0  0  0  0  0  0
    5.6500   -3.1480   -4.1060 C   0  0  0  0  0  0  0  0  0  0  0  0
    6.5650   -2.5840   -3.0570 C   0  0  1  0  0  0  0  0  0  0  0  0
    7.2040   -1.3250   -3.6080 C   0  0  0  0  0  0  0  0  0  0  0  0
    8.4100   -1.6950   -4.5580 C   0  0  0  0  0  0  0  0  0  0  0  0
    5.8500   -2.3830   -1.7960 O   0  0  0  0  0  0  0  0  0  0  0  0
    5.5720   -3.5250   -0.9910 C   0  0  0  0  0  0  0  0  0  0  0  0
    5.9660   -4.6090   -1.3600 O   0  0  0  0  0  0  0  0  0  0  0  0
    4.7510   -3.4310    0.2610 C   0  0  0  0  0  0  0  0  0  0  0  0
    4.4600   -2.2580    0.9090 C   0  0  0  0  0  0  0  0  0  0  0  0
    3.5050   -2.2530    2.0780 C   0  0  0  0  0  0  0  0  0  0  0  0
    2.6980   -3.3450    2.3260 C   0  0  0  0  0  0  0  0  0  0  0  0
    1.8180   -3.2810    3.4030 C   0  0  0  0  0  0  0  0  0  0  0  0
    1.7160   -2.1720    4.2320 C   0  0  0  0  0  0  0  0  0  0  0  0
    0.8010   -2.1310    5.2790 O   0  0  0  0  0  0  0  0  0  0  0  0
    0.8280   -3.2610    6.1610 C   0  0  0  0  0  0  0  0  0  0  0  0
    2.5170   -1.0940    3.9430 C   0  0  0  0  0  0  0  0  0  0  0  0
    3.4200   -1.1260    2.8720 C   0  0  0  0  0  0  0  0  0  0  0  0
  2  1  1  0
  3  2  1  0
  4  3  1  0
  5  4  1  6
  6  5  1  0
  7  6  1  0
  8  5  1  0
  9  8  1  0
 10  9  2  0
 11  9  1  0
 12 11  2  3
 13 12  1  0
 14 13  1  0
 15 14  2  0
 16 15  1  0
 17 16  1  0
 18 17  1  0
 19 16  2  0
 20 19  1  0
 20 13  2  0
M  END
>  <structure>  (1) 
bg33_2

>  <pose>  (1) 
0

>  <is_reference>  (1) 
1

>  <rmsd_to_reference_A>  (1) 
0.000

>  <vina_score>  (1) 


$$$$
bg33_2_pose1
     RDKit          3D

 20 20  0  0  0  0  0  0  0  0999 V2000
   -2.8250   -2.4330    5.9310 C   0  0  0  0  0  0  0  0  0  0  0  0
   -1.3130   -2.7230    5.9150 C   0  0  0  0  0  0  0  0  0  0  0  0
   -0.6070   -1.7330    5.0240 C   0  0  0  0  0  0  0  0  0  0  0  0
    0.9020   -2.0090    4.9120 C   0  0  0  0  0  0  0  0  0  0  0  0
    1.1760   -3.1820    4.0160 C   0  0  1  0  0  0  0  0  0  0  0  0
    1.7620   -2.6650    2.7170 C   0  0  0  0  0  0  0  0  0  0  0  0
    1.4480   -3.6670    1.5380 C   0  0  0  0  0  0  0  0  0  0  0  0
    2.0170   -4.1700    4.6940 O   0  0  0  0  0  0  0  0  0  0  0  0
    1.6490   -5.5430    4.6030 C   0  0  0  0  0  0  0  0  0  0  0  0
    2.5000   -6.3880    4.7680 O   0  0  0  0  0  0  0  0  0  0  0  0
    0.2550   -5.9670    4.2430 C   0  0  0  0  0  0  0  0  0  0  0  0
   -0.7230   -6.2620    5.1570 C   0  0  0  0  0  0  0  0  0  0  0  0
   -2.1340   -6.5380    4.6970 C   0  0  0  0  0  0  0  0  0  0  0  0
   -2.3690   -7.0850    3.4520 C   0  0  0  0  0  0  0  0  0  0  0  0
   -3.6890   -7.2980    3.0650 C   0  0  0  0  0  0  0  0  0  0  0  0
   -4.7740   -6.9830    3.8730 C   0  0  0  0  0  0  0  0  0  0  0  0
   -6.0820   -7.1790    3.4390 O   0  0  0  0  0  0  0  0  0  0  0  0
   -6.2900   -8.3420    2.6270 C   0  0  0  0  0  0  0  0  0  0  0  0
   -4.5060   -6.4190    5.0960 C   0  0  0  0  0  0  0  0  0  0  0  0
   -3.1890   -6.1970    5.5210 C   0  0  0  0  0  0  0  0  0  0  0  0
  2  1  1  0
  3  2  1  0
  4  3  1  0
  5  4  1  1
  6  5  1  0
  7  6  1  0
  8  5  1  0
  9  8  1  0
 10  9  2  0
 11  9  1  0
 12 11  2  3
 13 12  1  0
 14 13  1  0
 15 14  2  0
 16 15  1  0
 17 16  1  0
 18 17  1  0
 19 16  2  0
 20 19  1  0
 20 13  2  0
M  END
>  <structure>  (2) 
bg33_2

>  <pose>  (2) 
1

>  <is_reference>  (2) 
0

>  <rmsd_to_reference_A>  (2) 
8.939

>  <vina_score>  (2) 
-2.9

$$$$
bg33_2_pose2
     RDKit          3D

 20 20  0  0  0  0  0  0  0  0999 V2000
    5.0730   -1.3360    2.0990 C   0  0  0  0  0  0  0  0  0  0  0  0
    4.0250   -2.4480    2.2800 C   0  0  0  0  0  0  0  0  0  0  0  0
    2.6390   -1.8550    2.2770 C   0  0  0  0  0  0  0  0  0  0  0  0
    1.6530   -2.6480    3.1520 C   0  0  0  0  0  0  0  0  0  0  0  0
    1.3620   -1.9250    4.4350 C   0  0  1  0  0  0  0  0  0  0  0  0
   -0.0140   -2.3410    4.9150 C   0  0  0  0  0  0  0  0  0  0  0  0
   -0.8030   -1.0880    5.4640 C   0  0  0  0  0  0  0  0  0  0  0  0
    2.4260   -2.1540    5.4140 O   0  0  0  0  0  0  0  0  0  0  0  0
    2.9790   -1.0240    6.0820 C   0  0  0  0  0  0  0  0  0  0  0  0
    2.6690   -0.8170    7.2350 O   0  0  0  0  0  0  0  0  0  0  0  0
    3.8780   -0.0500    5.3800 C   0  0  0  0  0  0  0  0  0  0  0  0
    3.4370    1.0390    4.6720 C   0  0  0  0  0  0  0  0  0  0  0  0
    4.4250    2.0400    4.1250 C   0  0  0  0  0  0  0  0  0  0  0  0
    3.9840    3.1660    3.4600 C   0  0  0  0  0  0  0  0  0  0  0  0
    4.9360    4.0470    2.9540 C   0  0  0  0  0  0  0  0  0  0  0  0
    6.3030    3.8410    3.0870 C   0  0  0  0  0  0  0  0  0  0  0  0
    7.2260    4.7260    2.5390 O   0  0  0  0  0  0  0  0  0  0  0  0
    6.8790    6.1140    2.6400 C   0  0  0  0  0  0  0  0  0  0  0  0
    6.7080    2.6990    3.7340 C   0  0  0  0  0  0  0  0  0  0  0  0
    5.7770    1.7950    4.2630 C   0  0  0  0  0  0  0  0  0  0  0  0
  2  1  1  0
  3  2  1  0
  4  3  1  0
  5  4  1  6
  6  5  1  0
  7  6  1  0
  8  5  1  0
  9  8  1  0
 10  9  2  0
 11  9  1  0
 12 11  2  3
 13 12  1  0
 14 13  1  0
 15 14  2  0
 16 15  1  0
 17 16  1  0
 18 17  1  0
 19 16  2  0
 20 19  1  0
 20 13  2  0
M  END
>  <structure>  (3) 
bg33_2

>  <pose>  (3) 
2

>  <is_reference>  (3) 
0

>  <rmsd_to_reference_A>  (3) 
8.388

>  <vina_score>  (3) 
-2.9

$$$$
bg33_2_pose3
     RDKit          3D

 20 20  0  0  0  0  0  0  0  0999 V2000
   10.4390    2.5030    0.5790 C   0  0  0  0  0  0  0  0  0  0  0  0
    9.9120    1.1120    0.1820 C   0  0  0  0  0  0  0  0  0  0  0  0
   10.9050    0.4230   -0.7180 C   0  0  0  0  0  0  0  0  0  0  0  0
   10.2270   -0.4250   -1.8070 C   0  0  0  0  0  0  0  0  0  0  0  0
    8.7740   -0.6480   -1.4980 C   0  0  1  0  0  0  0  0  0  0  0  0
    7.9740   -0.4000   -2.7620 C   0  0  0  0  0  0  0  0  0  0  0  0
    6.7800   -1.4290   -2.8630 C   0  0  0  0  0  0  0  0  0  0  0  0
    8.5630   -1.9730   -0.9130 O   0  0  0  0  0  0  0  0  0  0  0  0
    8.2730   -2.0550    0.4790 C   0  0  0  0  0  0  0  0  0  0  0  0
    9.1820   -2.2490    1.2540 O   0  0  0  0  0  0  0  0  0  0  0  0
    6.8690   -1.9740    1.0010 C   0  0  0  0  0  0  0  0  0  0  0  0
    5.8040   -2.6520    0.4660 C   0  0  0  0  0  0  0  0  0  0  0  0
    4.4600   -2.6190    1.1520 C   0  0  0  0  0  0  0  0  0  0  0  0
    4.0980   -1.5370    1.9280 C   0  0  0  0  0  0  0  0  0  0  0  0
    2.8570   -1.5660    2.5580 C   0  0  0  0  0  0  0  0  0  0  0  0
    1.9740   -2.6310    2.4430 C   0  0  0  0  0  0  0  0  0  0  0  0
    0.7560   -2.6400    3.1150 O   0  0  0  0  0  0  0  0  0  0  0  0
    0.8090   -2.2200    4.4850 C   0  0  0  0  0  0  0  0  0  0  0  0
    2.3760   -3.7020    1.6830 C   0  0  0  0  0  0  0  0  0  0  0  0
    3.6150   -3.7040    1.0270 C   0  0  0  0  0  0  0  0  0  0  0  0
  2  1  1  0
  3  2  1  0
  4  3  1  0
  5  4  1  6
  6  5  1  0
  7  6  1  0
  8  5  1  0
  9  8  1  0
 10  9  2  0
 11  9  1  0
 12 11  2  3
 13 12  1  0
 14 13  1  0
 15 14  2  0
 16 15  1  0
 17 16  1  0
 18 17  1  0
 19 16  2  0
 20 19  1  0
 20 13  2  0
M  END
>  <structure>  (4) 
bg33_2

>  <pose>  (4) 
3

>  <is_reference>  (4) 
0

>  <rmsd_to_reference_A>  (4) 
4.445

>  <vina_score>  (4) 
-2.9

$$$$
bg33_2_pose4
     RDKit          3D

 20 20  0  0  0  0  0  0  0  0999 V2000
    4.9350    3.5520    3.0730 C   0  0  0  0  0  0  0  0  0  0  0  0
    3.9670    2.5520    3.7290 C   0  0  0  0  0  0  0  0  0  0  0  0
    4.5520    1.1640    3.6850 C   0  0  0  0  0  0  0  0  0  0  0  0
    3.5680    0.0900    4.1810 C   0  0  0  0  0  0  0  0  0  0  0  0
    3.4450   -1.0330    3.1920 C   0  0  1  0  0  0  0  0  0  0  0  0
    4.8180   -1.3130    2.6140 C   0  0  0  0  0  0  0  0  0  0  0  0
    4.6970   -1.7370    1.0980 C   0  0  0  0  0  0  0  0  0  0  0  0
    2.8110   -2.2000    3.8070 O   0  0  0  0  0  0  0  0  0  0  0  0
    1.5160   -2.5800    3.3510 C   0  0  0  0  0  0  0  0  0  0  0  0
    1.3880   -2.9660    2.2100 O   0  0  0  0  0  0  0  0  0  0  0  0
    0.3010   -2.4520    4.2220 C   0  0  0  0  0  0  0  0  0  0  0  0
    0.0730   -1.4110    5.0840 C   0  0  0  0  0  0  0  0  0  0  0  0
   -1.2460   -1.2990    5.8080 C   0  0  0  0  0  0  0  0  0  0  0  0
   -2.1250   -2.3630    5.8280 C   0  0  0  0  0  0  0  0  0  0  0  0
   -3.3400   -2.2010    6.4890 C   0  0  0  0  0  0  0  0  0  0  0  0
   -3.7030   -1.0210    7.1250 C   0  0  0  0  0  0  0  0  0  0  0  0
   -4.9390   -0.8840    7.7480 O   0  0  0  0  0  0  0  0  0  0  0  0
   -5.9020   -1.8980    7.4300 C   0  0  0  0  0  0  0  0  0  0  0  0
   -2.8150    0.0250    7.0660 C   0  0  0  0  0  0  0  0  0  0  0  0
   -1.5810   -0.1050    6.4160 C   0  0  0  0  0  0  0  0  0  0  0  0
  2  1  1  0
  3  2  1  0
  4  3  1  0
  5  4  1  1
  6  5  1  0
  7  6  1  0
  8  5  1  0
  9  8  1  0
 10  9  2  0
 11  9  1  0
 12 11  2  3
 13 12  1  0
 14 13  1  0
 15 14  2  0
 16 15  1  0
 17 16  1  0
 18 17  1  0
 19 16  2  0
 20 19  1  0
 20 13  2  0
M  END
>  <structure>  (5) 
bg33_2

>  <pose>  (5) 
4

>  <is_reference>  (5) 
0

>  <rmsd_to_reference_A>  (5) 
7.201

>  <vina_score>  (5) 
-2.9

$$$$
bg33_2_pose5
     RDKit          3D

 20 20  0  0  0  0  0  0  0  0999 V2000
   -1.0810   -6.0520    4.8690 C   0  0  0  0  0  0  0  0  0  0  0  0
   -2.4230   -6.7340    5.1900 C   0  0  0  0  0  0  0  0  0  0  0  0
   -3.5270   -5.7090    5.2250 C   0  0  0  0  0  0  0  0  0  0  0  0
   -3.9110   -5.3010    6.6580 C   0  0  0  0  0  0  0  0  0  0  0  0
   -3.4060   -3.9240    6.9850 C   0  0  1  0  0  0  0  0  0  0  0  0
   -2.1800   -4.0620    7.8650 C   0  0  0  0  0  0  0  0  0  0  0  0
   -2.4450   -3.4060    9.2770 C   0  0  0  0  0  0  0  0  0  0  0  0
   -3.1760   -3.1510    5.7640 O   0  0  0  0  0  0  0  0  0  0  0  0
   -2.5440   -1.8790    5.8830 C   0  0  0  0  0  0  0  0  0  0  0  0
   -3.1070   -1.0030    6.5000 O   0  0  0  0  0  0  0  0  0  0  0  0
   -1.2370   -1.5790    5.2110 C   0  0  0  0  0  0  0  0  0  0  0  0
   -0.1970   -2.4670    5.1080 C   0  0  0  0  0  0  0  0  0  0  0  0
    1.0200   -2.1200    4.2860 C   0  0  0  0  0  0  0  0  0  0  0  0
    1.1880   -2.6550    3.0240 C   0  0  0  0  0  0  0  0  0  0  0  0
    2.3390   -2.3220    2.3160 C   0  0  0  0  0  0  0  0  0  0  0  0
    3.3210   -1.4810    2.8220 C   0  0  0  0  0  0  0  0  0  0  0  0
    4.4750   -1.1960    2.0990 O   0  0  0  0  0  0  0  0  0  0  0  0
    4.7540   -2.0900    1.0130 C   0  0  0  0  0  0  0  0  0  0  0  0
    3.1340   -0.9840    4.0890 C   0  0  0  0  0  0  0  0  0  0  0  0
    1.9840   -1.2920    4.8280 C   0  0  0  0  0  0  0  0  0  0  0  0
  2  1  1  0
  3  2  1  0
  4  3  1  0
  5  4  1  6
  6  5  1  0
  7  6  1  0
  8  5  1  0
  9  8  1  0
 10  9  2  0
 11  9  1  0
 12 11  2  3
 13 12  1  0
 14 13  1  0
 15 14  2  0
 16 15  1  0
 17 16  1  0
 18 17  1  0
 19 16  2  0
 20 19  1  0
 20 13  2  0
M  END
>  <structure>  (6) 
bg33_2

>  <pose>  (6) 
5

>  <is_reference>  (6) 
0

>  <rmsd_to_reference_A>  (6) 
10.168

>  <vina_score>  (6) 
-2.9

$$$$
bg33_2_pose6
     RDKit          3D

 20 20  0  0  0  0  0  0  0  0999 V2000
    2.2640   -4.7520    0.2580 C   0  0  0  0  0  0  0  0  0  0  0  0
    1.0500   -4.4720    1.1620 C   0  0  0  0  0  0  0  0  0  0  0  0
    1.5080   -4.2170    2.5760 C   0  0  0  0  0  0  0  0  0  0  0  0
    1.2030   -2.7850    3.0480 C   0  0  0  0  0  0  0  0  0  0  0  0
    2.4630   -2.0540    3.4150 C   0  0  1  0  0  0  0  0  0  0  0  0
    3.0780   -1.4970    2.1480 C   0  0  0  0  0  0  0  0  0  0  0  0
    4.5760   -1.9780    2.0090 C   0  0  0  0  0  0  0  0  0  0  0  0
    2.1980   -1.0430    4.4400 O   0  0  0  0  0  0  0  0  0  0  0  0
    3.3100   -0.3810    5.0350 C   0  0  0  0  0  0  0  0  0  0  0  0
    4.0280   -1.0050    5.7840 O   0  0  0  0  0  0  0  0  0  0  0  0
    3.5750    1.0780    4.8130 C   0  0  0  0  0  0  0  0  0  0  0  0
    4.2440    1.5870    3.7290 C   0  0  0  0  0  0  0  0  0  0  0  0
    4.3320    3.0800    3.5230 C   0  0  0  0  0  0  0  0  0  0  0  0
    3.2870    3.9000    3.8990 C   0  0  0  0  0  0  0  0  0  0  0  0
    3.4080    5.2670    3.6660 C   0  0  0  0  0  0  0  0  0  0  0  0
    4.5260    5.8380    3.0730 C   0  0  0  0  0  0  0  0  0  0  0  0
    4.5980    7.2050    2.8250 O   0  0  0  0  0  0  0  0  0  0  0  0
    5.4860    7.5900    1.7680 C   0  0  0  0  0  0  0  0  0  0  0  0
    5.5370    4.9900    2.6900 C   0  0  0  0  0  0  0  0  0  0  0  0
    5.4530    3.6100    2.9160 C   0  0  0  0  0  0  0  0  0  0  0  0
  2  1  1  0
  3  2  1  0
  4  3  1  0
  5  4  1  6
  6  5  1  0
  7  6  1  0
  8  5  1  0
  9  8  1  0
 10  9  2  0
 11  9  1  0
 12 11  2  3
 13 12  1  0
 14 13  1  0
 15 14  2  0
 16 15  1  0
 17 16  1  0
 18 17  1  0
 19 16  2  0
 20 19  1  0
 20 13  2  0
M  END
>  <structure>  (7) 
bg33_2

>  <pose>  (7) 
6

>  <is_reference>  (7) 
0

>  <rmsd_to_reference_A>  (7) 
7.829

>  <vina_score>  (7) 
-2.9

$$$$
bg33_2_pose7
     RDKit          3D

 20 20  0  0  0  0  0  0  0  0999 V2000
    1.7510   -1.1600   -5.1250 C   0  0  0  0  0  0  0  0  0  0  0  0
    0.7500   -2.2450   -5.5620 C   0  0  0  0  0  0  0  0  0  0  0  0
   -0.3930   -2.3160   -4.5830 C   0  0  0  0  0  0  0  0  0  0  0  0
   -0.8630   -3.7580   -4.3250 C   0  0  0  0  0  0  0  0  0  0  0  0
   -0.0390   -4.4150   -3.2560 C   0  0  1  0  0  0  0  0  0  0  0  0
   -0.8800   -4.5170   -1.9990 C   0  0  0  0  0  0  0  0  0  0  0  0
    0.0450   -4.7390   -0.7390 C   0  0  0  0  0  0  0  0  0  0  0  0
    0.4900   -5.6980   -3.7210 O   0  0  0  0  0  0  0  0  0  0  0  0
    1.8980   -5.8200   -3.9000 C   0  0  0  0  0  0  0  0  0  0  0  0
    2.3610   -6.9080   -4.1620 O   0  0  0  0  0  0  0  0  0  0  0  0
    2.8250   -4.6570   -3.7090 C   0  0  0  0  0  0  0  0  0  0  0  0
    3.7470   -4.5600   -2.6980 C   0  0  0  0  0  0  0  0  0  0  0  0
    4.7330   -3.4170   -2.6760 C   0  0  0  0  0  0  0  0  0  0  0  0
    5.0070   -2.7090   -3.8290 C   0  0  0  0  0  0  0  0  0  0  0  0
    5.9420   -1.6790   -3.7600 C   0  0  0  0  0  0  0  0  0  0  0  0
    6.6070   -1.3370   -2.5910 C   0  0  0  0  0  0  0  0  0  0  0  0
    7.5600   -0.3240   -2.5680 O   0  0  0  0  0  0  0  0  0  0  0  0
    8.6430   -0.4800   -3.4940 C   0  0  0  0  0  0  0  0  0  0  0  0
    6.3280   -2.0780   -1.4680 C   0  0  0  0  0  0  0  0  0  0  0  0
    5.3870   -3.1160   -1.4980 C   0  0  0  0  0  0  0  0  0  0  0  0
  2  1  1  0
  3  2  1  0
  4  3  1  0
  5  4  1  6
  6  5  1  0
  7  6  1  0
  8  5  1  0
  9  8  1  0
 10  9  2  0
 11  9  1  0
 12 11  2  3
 13 12  1  0
 14 13  1  0
 15 14  2  0
 16 15  1  0
 17 16  1  0
 18 17  1  0
 19 16  2  0
 20 19  1  0
 20 13  2  0
M  END
>  <structure>  (8) 
bg33_2

>  <pose>  (8) 
7

>  <is_reference>  (8) 
0

>  <rmsd_to_reference_A>  (8) 
7.035

>  <vina_score>  (8) 
-2.9

$$$$
bg33_2_pose8
     RDKit          3D

 20 20  0  0  0  0  0  0  0  0999 V2000
    2.4850   -2.1310    2.3190 C   0  0  0  0  0  0  0  0  0  0  0  0
    1.3320   -3.1460    2.2110 C   0  0  0  0  0  0  0  0  0  0  0  0
    1.6290   -4.1500    1.1280 C   0  0  0  0  0  0  0  0  0  0  0  0
    0.8480   -5.4630    1.3070 C   0  0  0  0  0  0  0  0  0  0  0  0
    0.3070   -5.9580   -0.0040 C   0  0  1  0  0  0  0  0  0  0  0  0
    0.7270   -7.4040   -0.1780 C   0  0  0  0  0  0  0  0  0  0  0  0
    1.1810   -7.6650   -1.6680 C   0  0  0  0  0  0  0  0  0  0  0  0
   -1.1390   -5.7470   -0.0840 O   0  0  0  0  0  0  0  0  0  0  0  0
   -1.6430   -4.9380   -1.1430 C   0  0  0  0  0  0  0  0  0  0  0  0
   -2.8370   -4.9140   -1.3400 O   0  0  0  0  0  0  0  0  0  0  0  0
   -0.7330   -4.1730   -2.0570 C   0  0  0  0  0  0  0  0  0  0  0  0
   -0.9120   -4.0640   -3.4130 C   0  0  0  0  0  0  0  0  0  0  0  0
   -0.0260   -3.1510   -4.2240 C   0  0  0  0  0  0  0  0  0  0  0  0
    1.2830   -3.5010   -4.4880 C   0  0  0  0  0  0  0  0  0  0  0  0
    2.0660   -2.6130   -5.2220 C   0  0  0  0  0  0  0  0  0  0  0  0
    1.5910   -1.3980   -5.6950 C   0  0  0  0  0  0  0  0  0  0  0  0
    2.4120   -0.5210   -6.3960 O   0  0  0  0  0  0  0  0  0  0  0  0
    3.8010   -0.8740   -6.4250 C   0  0  0  0  0  0  0  0  0  0  0  0
    0.2910   -1.0710   -5.3950 C   0  0  0  0  0  0  0  0  0  0  0  0
   -0.5290   -1.9430   -4.6660 C   0  0  0  0  0  0  0  0  0  0  0  0
  2  1  1  0
  3  2  1  0
  4  3  1  0
  5  4  1  1
  6  5  1  0
  7  6  1  0
  8  5  1  0
  9  8  1  0
 10  9  2  0
 11  9  1  0
 12 11  2  3
 13 12  1  0
 14 13  1  0
 15 14  2  0
 16 15  1  0
 17 16  1  0
 18 17  1  0
 19 16  2  0
 20 19  1  0
 20 13  2  0
M  END
>  <structure>  (9) 
bg33_2

>  <pose>  (9) 
8

>  <is_reference>  (9) 
0

>  <rmsd_to_reference_A>  (9) 
8.735

>  <vina_score>  (9) 
-2.9

$$$$
bg33_2_pose9
     RDKit          3D

 20 20  0  0  0  0  0  0  0  0999 V2000
    0.3650    1.4920    7.2180 C   0  0  0  0  0  0  0  0  0  0  0  0
    1.5890    1.2360    6.3210 C   0  0  0  0  0  0  0  0  0  0  0  0
    2.4610    0.1680    6.9300 C   0  0  0  0  0  0  0  0  0  0  0  0
    3.5420   -0.3380    5.9600 C   0  0  0  0  0  0  0  0  0  0  0  0
    2.9540   -0.6900    4.6240 C   0  0  1  0  0  0  0  0  0  0  0  0
    3.9340   -0.2720    3.5460 C   0  0  0  0  0  0  0  0  0  0  0  0
    4.4190    1.2110    3.7930 C   0  0  0  0  0  0  0  0  0  0  0  0
    2.5850   -2.1050    4.5740 O   0  0  0  0  0  0  0  0  0  0  0  0
    1.3360   -2.4540    3.9850 C   0  0  0  0  0  0  0  0  0  0  0  0
    1.2810   -2.6210    2.7870 O   0  0  0  0  0  0  0  0  0  0  0  0
    0.0780   -2.5550    4.7970 C   0  0  0  0  0  0  0  0  0  0  0  0
   -0.7040   -1.4850    5.1480 C   0  0  0  0  0  0  0  0  0  0  0  0
   -2.0260   -1.7060    5.8410 C   0  0  0  0  0  0  0  0  0  0  0  0
   -2.6590   -2.9300    5.7650 C   0  0  0  0  0  0  0  0  0  0  0  0
   -3.8880   -3.0750    6.4030 C   0  0  0  0  0  0  0  0  0  0  0  0
   -4.5030   -2.0480    7.1060 C   0  0  0  0  0  0  0  0  0  0  0  0
   -5.7480   -2.2200    7.7020 O   0  0  0  0  0  0  0  0  0  0  0  0
   -6.5870   -1.0570    7.7150 C   0  0  0  0  0  0  0  0  0  0  0  0
   -3.8560   -0.8360    7.1420 C   0  0  0  0  0  0  0  0  0  0  0  0
   -2.6140   -0.6560    6.5180 C   0  0  0  0  0  0  0  0  0  0  0  0
  2  1  1  0
  3  2  1  0
  4  3  1  0
  5  4  1  1
  6  5  1  0
  7  6  1  0
  8  5  1  0
  9  8  1  0
 10  9  2  0
 11  9  1  0
 12 11  2  3
 13 12  1  0
 14 13  1  0
 15 14  2  0
 16 15  1  0
 17 16  1  0
 18 17  1  0
 19 16  2  0
 20 19  1  0
 20 13  2  0
M  END
>  <structure>  (10) 
bg33_2

>  <pose>  (10) 
9

>  <is_reference>  (10) 
0

>  <rmsd_to_reference_A>  (10) 
8.530

>  <vina_score>  (10) 
-2.8

$$$$
