bg33_2_pose0_reference
     RDKit          3D

 20 20  0  0  0  0  0  0  0  0999 V2000
    2.7400   -1.4940   -6.0820 C   0  0  0  0  0  0  0  0  0  0  0  0
    3.7810   -2.5670   -5.7160 C   0  0  0  0  0  0  0  0  0  0  0  0
    4.5680   -2.1310   -4.5070 C   0  0  0  0  0  0  0  0  0  0  0  0
    5.6500   -3.1480   -4.1060 C   0  0  0  0  0  0  0  0  0  0  0  0
    6.5650   -2.5840   -3.0570 C   0  0  1  0  0  0  0  0  0  0  0  0
    7.2040   -1.3250   -3.6080 C   0  0  0  0  0  0  0  0  0  0  0  0
    8.4100   -1.6950   -4.5580 C   0  0  0  0  0  0  0  0  0  0  0  0
    5.8500   -2.3830   -1.7960 O   0  0  0  0  0  0  0  0  0  0  0  0
    5.5720   -3.5250   -0.9910 C   0  0  0  0  0  0  0  0  0  0  0  0
    5.9660   -4.6090   -1.3600 O   0  0  0  0  0  0  0  0  0  0  0  0
    4.7510   -3.4310    0.2610 C   0  0  0  0  0  0  0  0  0  0  0  0
    4.4600   -2.2580    0.9090 C   0  0  0  0  0  0  0  0  0  0  0  0
    3.5050   -2.2530    2.0780 C   0  0  0  0  0  0  0  0  0  0  0  0
    2.6980   -3.3450    2.3260 C   0  0  0  0  0  0  0  0  0  0  0  0
    1.8180   -3.2810    3.4030 C   0  0  0  0  0  0  0  0  0  0  0  0
    1.7160   -2.1720    4.2320 C   0  0  0  0  0  0  0  0  0  0  0  0
    0.8010   -2.1310    5.2790 O   0  0  0  0  0  0  0  0  0  0  0  0
    0.8280   -3.2610    6.1610 C   0  0  0  0  0  0  0  0  0  0  0  0
    2.5170   -1.0940    3.9430 C   0  0  0  0  0  0  0  0  0  0  0  0
    3.4200   -1.1260    2.8720 C   0  0  0  0  0  0  0  0  0  0  0  0
  2  1  1  0
  3  2  1  0
  4  3  1  0
  5  4  1  6
  6  5  1  0
  7  6  1  0
  8  5  1  0
  9  8  1  0
 10  9  2  0
 11  9  1  0
 12 11  2  3
 13 12  1  0
 14 13  1  0
 15 14  2  0
 16 15  1  0
 17 16  1  0
 18 17  1  0
 19 16  2  0
 20 19  1  0
 20 13  2  0
M  END
>  <structure>  (1) 
bg33_2

>  <pose>  (1) 
0

>  <is_reference>  (1) 
1

>  <rmsd_to_reference_A>  (1) 
0.000

>  <vina_score>  (1) 


$$$$
