ox2_shuffle_esm0_ligand
 OpenBabel10092621213D

 18 19  0  0  0  0  0  0  0  0999 V2000
   -1.3390    2.5600    6.4460 C   0  0  0  0  0  0  0  0  0  0  0  0
   -1.1300    1.4590    5.6230 C   0  0  0  0  0  3  0  0  0  0  0  0
    0.1210    1.2140    5.1180 C   0  0  0  0  0  3  0  0  0  0  0  0
    1.1810    2.0400    5.4190 C   0  0  0  0  0  0  0  0  0  0  0  0
    0.9660    3.1500    6.2240 C   0  0  0  0  0  0  0  0  0  0  0  0
   -0.2910    3.3970    6.7400 C   0  0  0  0  0  3  0  0  0  0  0  0
   -2.8230    4.1190    7.5580 C   0  0  0  0  0  1  0  0  0  0  0  0
   -2.5460    2.8360    6.9870 O   0  0  0  0  0  0  0  0  0  0  0  0
    2.5580    1.8030    4.9110 C   0  0  0  0  0  0  0  0  0  0  0  0
    2.8260    2.2470    3.8240 O   0  0  0  0  0  0  0  0  0  0  0  0
    3.6390    1.1280    5.6580 C   0  0  0  0  0  0  0  0  0  0  0  0
    3.3020    0.3140    6.7390 C   0  0  0  0  0  3  0  0  0  0  0  0
    4.2750   -0.3510    7.4480 C   0  0  0  0  0  3  0  0  0  0  0  0
    5.6050   -0.2210    7.1040 C   0  0  0  0  0  3  0  0  0  0  0  0
    5.9470    0.5740    6.0270 C   0  0  0  0  0  3  0  0  0  0  0  0
    4.9640    1.2320    5.3110 C   0  0  0  0  0  3  0  0  0  0  0  0
    2.0150    3.9750    6.4930 O   0  0  0  0  0  0  0  0  0  0  0  0
    2.0590    4.8710    6.0740 H   0  0  0  0  0  0  0  0  0  0  0  0
  1  6  1  0  0  0  0
  1  8  1  0  0  0  0
  2  1  2  0  0  0  0
  3  4  2  0  0  0  0
  3  2  1  0  0  0  0
  4  5  1  0  0  0  0
  5 17  1  0  0  0  0
  5  6  2  0  0  0  0
  8  7  1  0  0  0  0
  9  4  1  0  0  0  0
  9 11  1  0  0  0  0
 10  9  2  0  0  0  0
 11 12  1  0  0  0  0
 12 13  2  0  0  0  0
 14 13  1  0  0  0  0
 15 14  2  0  0  0  0
 16 11  2  0  0  0  0
 16 15  1  0  0  0  0
 18 17  1  0  0  0  0
M  END
>  <MODEL>
1

>  <REMARK>
 VINA RESULT:      -5.5      0.000      0.000
  Name = ox2_shuffle_esm0_ligand
  5 active torsions:
  status: ('A' for Active; 'I' for Inactive)
    1  A    between atoms: C_1  and  O_2
    2  A    between atoms: O_2  and  C_3
    3  A    between atoms: C_6  and  C_7
    4  A    between atoms: C_7  and  C_9
    5  A    between atoms: C_15  and  O_16
                            x       y       z     vdW  Elec       q    Type
                         _______ _______ _______ _____ _____    ______ ____

>  <TORSDO>
F 4

$$$$
ox2_shuffle_esm0_ligand
 OpenBabel10092621213D

 18 19  0  0  0  0  0  0  0  0999 V2000
   -1.4140    3.0010    6.9910 C   0  0  0  0  0  0  0  0  0  0  0  0
   -0.2260    3.6060    7.3850 C   0  0  0  0  0  3  0  0  0  0  0  0
    0.9590    3.2130    6.8160 C   0  0  0  0  0  3  0  0  0  0  0  0
    0.9900    2.2310    5.8520 C   0  0  0  0  0  0  0  0  0  0  0  0
   -0.1950    1.6140    5.4740 C   0  0  0  0  0  0  0  0  0  0  0  0
   -1.3900    2.0110    6.0400 C   0  0  0  0  0  3  0  0  0  0  0  0
   -2.8030    4.6530    8.0910 C   0  0  0  0  0  1  0  0  0  0  0  0
   -2.6120    3.3630    7.5020 O   0  0  0  0  0  0  0  0  0  0  0  0
    2.2480    1.7870    5.1940 C   0  0  0  0  0  0  0  0  0  0  0  0
    2.3800    2.0540    4.0260 O   0  0  0  0  0  0  0  0  0  0  0  0
    3.3710    1.1060    5.8700 C   0  0  0  0  0  0  0  0  0  0  0  0
    3.0940    0.2540    6.9370 C   0  0  0  0  0  3  0  0  0  0  0  0
    4.1090   -0.4190    7.5800 C   0  0  0  0  0  3  0  0  0  0  0  0
    5.4200   -0.2550    7.1820 C   0  0  0  0  0  3  0  0  0  0  0  0
    5.7010    0.5780    6.1180 C   0  0  0  0  0  3  0  0  0  0  0  0
    4.6770    1.2430    5.4670 C   0  0  0  0  0  3  0  0  0  0  0  0
   -0.1480    0.6250    4.5410 O   0  0  0  0  0  0  0  0  0  0  0  0
   -0.0160   -0.3150    4.8220 H   0  0  0  0  0  0  0  0  0  0  0  0
  1  2  1  0  0  0  0
  1  8  1  0  0  0  0
  3  2  2  0  0  0  0
  4  3  1  0  0  0  0
  5  4  2  0  0  0  0
  5  6  1  0  0  0  0
  6  1  2  0  0  0  0
  8  7  1  0  0  0  0
  9  4  1  0  0  0  0
  9 11  1  0  0  0  0
 10  9  2  0  0  0  0
 11 12  1  0  0  0  0
 12 13  2  0  0  0  0
 14 13  1  0  0  0  0
 15 14  2  0  0  0  0
 16 11  2  0  0  0  0
 16 15  1  0  0  0  0
 17 18  1  0  0  0  0
 17  5  1  0  0  0  0
M  END
>  <MODEL>
2

>  <REMARK>
 VINA RESULT:      -5.4      0.984      1.654
  Name = ox2_shuffle_esm0_ligand
  5 active torsions:
  status: ('A' for Active; 'I' for Inactive)
    1  A    between atoms: C_1  and  O_2
    2  A    between atoms: O_2  and  C_3
    3  A    between atoms: C_6  and  C_7
    4  A    between atoms: C_7  and  C_9
    5  A    between atoms: C_15  and  O_16
                            x       y       z     vdW  Elec       q    Type
                         _______ _______ _______ _____ _____    ______ ____

>  <TORSDO>
F 4

$$$$
ox2_shuffle_esm0_ligand
 OpenBabel10092621213D

 18 19  0  0  0  0  0  0  0  0999 V2000
    4.7630    0.3830    6.4490 C   0  0  0  0  0  0  0  0  0  0  0  0
    3.6950   -0.0220    7.2420 C   0  0  0  0  0  3  0  0  0  0  0  0
    2.4190    0.3610    6.9120 C   0  0  0  0  0  3  0  0  0  0  0  0
    2.1770    1.1360    5.8010 C   0  0  0  0  0  0  0  0  0  0  0  0
    3.2470    1.5570    5.0220 C   0  0  0  0  0  0  0  0  0  0  0  0
    4.5320    1.1690    5.3480 C   0  0  0  0  0  3  0  0  0  0  0  0
    7.1160    0.4410    5.8780 C   0  0  0  0  0  1  0  0  0  0  0  0
    6.0360    0.0180    6.7160 O   0  0  0  0  0  0  0  0  0  0  0  0
    0.8100    1.5590    5.3940 C   0  0  0  0  0  0  0  0  0  0  0  0
    0.3130    0.9810    4.4610 O   0  0  0  0  0  0  0  0  0  0  0  0
   -0.0070    2.5800    6.0800 C   0  0  0  0  0  0  0  0  0  0  0  0
   -1.3290    2.2750    6.4030 C   0  0  0  0  0  3  0  0  0  0  0  0
   -2.1180    3.1880    7.0630 C   0  0  0  0  0  3  0  0  0  0  0  0
   -1.6170    4.4260    7.4120 C   0  0  0  0  0  3  0  0  0  0  0  0
   -0.3060    4.7310    7.1050 C   0  0  0  0  0  3  0  0  0  0  0  0
    0.4880    3.8060    6.4520 C   0  0  0  0  0  3  0  0  0  0  0  0
    2.9990    2.3460    3.9420 O   0  0  0  0  0  0  0  0  0  0  0  0
    3.7500    2.7640    3.4520 H   0  0  0  0  0  0  0  0  0  0  0  0
  1  8  1  0  0  0  0
  1  2  1  0  0  0  0
  3  2  2  0  0  0  0
  4  3  1  0  0  0  0
  5  6  1  0  0  0  0
  5  4  2  0  0  0  0
  6  1  2  0  0  0  0
  7  8  1  0  0  0  0
  9  4  1  0  0  0  0
  9 11  1  0  0  0  0
 10  9  2  0  0  0  0
 11 12  2  0  0  0  0
 11 16  1  0  0  0  0
 12 13  1  0  0  0  0
 13 14  2  0  0  0  0
 15 14  1  0  0  0  0
 16 15  2  0  0  0  0
 17  5  1  0  0  0  0
 18 17  1  0  0  0  0
M  END
>  <MODEL>
3

>  <REMARK>
 VINA RESULT:      -5.0      1.637      5.907
  Name = ox2_shuffle_esm0_ligand
  5 active torsions:
  status: ('A' for Active; 'I' for Inactive)
    1  A    between atoms: C_1  and  O_2
    2  A    between atoms: O_2  and  C_3
    3  A    between atoms: C_6  and  C_7
    4  A    between atoms: C_7  and  C_9
    5  A    between atoms: C_15  and  O_16
                            x       y       z     vdW  Elec       q    Type
                         _______ _______ _______ _____ _____    ______ ____

>  <TORSDO>
F 4

$$$$
ox2_shuffle_esm0_ligand
 OpenBabel10092621213D

 18 19  0  0  0  0  0  0  0  0999 V2000
    4.7010    1.0190    5.5890 C   0  0  0  0  0  0  0  0  0  0  0  0
    4.1710    1.7310    4.5190 C   0  0  0  0  0  3  0  0  0  0  0  0
    2.8140    1.9100    4.4260 C   0  0  0  0  0  3  0  0  0  0  0  0
    1.9650    1.3990    5.3820 C   0  0  0  0  0  0  0  0  0  0  0  0
    2.4940    0.6710    6.4390 C   0  0  0  0  0  0  0  0  0  0  0  0
    3.8600    0.4940    6.5400 C   0  0  0  0  0  3  0  0  0  0  0  0
    6.5420   -0.0350    6.7590 C   0  0  0  0  0  1  0  0  0  0  0  0
    6.0300    0.8310    5.7420 O   0  0  0  0  0  0  0  0  0  0  0  0
    0.4900    1.5850    5.3330 C   0  0  0  0  0  0  0  0  0  0  0  0
   -0.1370    0.8130    4.6530 O   0  0  0  0  0  0  0  0  0  0  0  0
   -0.2690    2.5930    6.1000 C   0  0  0  0  0  0  0  0  0  0  0  0
    0.3490    3.8020    6.4160 C   0  0  0  0  0  3  0  0  0  0  0  0
   -0.3300    4.7780    7.1090 C   0  0  0  0  0  3  0  0  0  0  0  0
   -1.6350    4.5730    7.5090 C   0  0  0  0  0  3  0  0  0  0  0  0
   -2.2590    3.3840    7.1900 C   0  0  0  0  0  3  0  0  0  0  0  0
   -1.5760    2.4100    6.4830 C   0  0  0  0  0  3  0  0  0  0  0  0
    1.6440    0.1480    7.3630 O   0  0  0  0  0  0  0  0  0  0  0  0
    1.8370   -0.7330    7.7710 H   0  0  0  0  0  0  0  0  0  0  0  0
  1  8  1  0  0  0  0
  1  6  1  0  0  0  0
  2  1  2  0  0  0  0
  3  2  1  0  0  0  0
  3  4  2  0  0  0  0
  4  5  1  0  0  0  0
  5  6  2  0  0  0  0
  5 17  1  0  0  0  0
  8  7  1  0  0  0  0
  9  4  1  0  0  0  0
  9 11  1  0  0  0  0
 10  9  2  0  0  0  0
 11 12  2  0  0  0  0
 11 16  1  0  0  0  0
 12 13  1  0  0  0  0
 13 14  2  0  0  0  0
 15 14  1  0  0  0  0
 16 15  2  0  0  0  0
 17 18  1  0  0  0  0
M  END
>  <MODEL>
4

>  <REMARK>
 VINA RESULT:      -4.9      1.796      6.003
  Name = ox2_shuffle_esm0_ligand
  5 active torsions:
  status: ('A' for Active; 'I' for Inactive)
    1  A    between atoms: C_1  and  O_2
    2  A    between atoms: O_2  and  C_3
    3  A    between atoms: C_6  and  C_7
    4  A    between atoms: C_7  and  C_9
    5  A    between atoms: C_15  and  O_16
                            x       y       z     vdW  Elec       q    Type
                         _______ _______ _______ _____ _____    ______ ____

>  <TORSDO>
F 4

$$$$
ox2_shuffle_esm0_ligand
 OpenBabel10092621213D

 18 19  0  0  0  0  0  0  0  0999 V2000
    5.0390    5.7030   -8.5360 C   0  0  0  0  0  0  0  0  0  0  0  0
    4.2800    6.5500   -7.7360 C   0  0  0  0  0  3  0  0  0  0  0  0
    4.8230    7.0690   -6.5880 C   0  0  0  0  0  3  0  0  0  0  0  0
    6.1140    6.7700   -6.2170 C   0  0  0  0  0  0  0  0  0  0  0  0
    6.8640    5.9080   -7.0060 C   0  0  0  0  0  0  0  0  0  0  0  0
    6.3230    5.3880   -8.1660 C   0  0  0  0  0  3  0  0  0  0  0  0
    4.7270    3.7930   -9.9930 C   0  0  0  0  0  1  0  0  0  0  0  0
    4.5620    5.1810   -9.6870 O   0  0  0  0  0  0  0  0  0  0  0  0
    6.7510    7.3240   -4.9930 C   0  0  0  0  0  0  0  0  0  0  0  0
    7.3310    8.3750   -5.1040 O   0  0  0  0  0  0  0  0  0  0  0  0
    6.6740    6.7260   -3.6440 C   0  0  0  0  0  0  0  0  0  0  0  0
    5.5010    6.8810   -2.9080 C   0  0  0  0  0  3  0  0  0  0  0  0
    5.3780    6.3210   -1.6570 C   0  0  0  0  0  3  0  0  0  0  0  0
    6.4170    5.5980   -1.1080 C   0  0  0  0  0  3  0  0  0  0  0  0
    7.5780    5.4300   -1.8360 C   0  0  0  0  0  3  0  0  0  0  0  0
    7.6930    5.9860   -3.0970 C   0  0  0  0  0  3  0  0  0  0  0  0
    8.1290    5.5970   -6.6150 O   0  0  0  0  0  0  0  0  0  0  0  0
    8.3180    4.7150   -6.2080 H   0  0  0  0  0  0  0  0  0  0  0  0
  1  6  2  0  0  0  0
  1  2  1  0  0  0  0
  2  3  2  0  0  0  0
  3  4  1  0  0  0  0
  4  9  1  0  0  0  0
  5 17  1  0  0  0  0
  5  4  2  0  0  0  0
  6  5  1  0  0  0  0
  7  8  1  0  0  0  0
  8  1  1  0  0  0  0
  9 11  1  0  0  0  0
 10  9  2  0  0  0  0
 11 16  2  0  0  0  0
 11 12  1  0  0  0  0
 12 13  2  0  0  0  0
 13 14  1  0  0  0  0
 15 14  2  0  0  0  0
 16 15  1  0  0  0  0
 17 18  1  0  0  0  0
M  END
>  <MODEL>
5

>  <REMARK>
 VINA RESULT:      -4.9     12.042     13.835
  Name = ox2_shuffle_esm0_ligand
  5 active torsions:
  status: ('A' for Active; 'I' for Inactive)
    1  A    between atoms: C_1  and  O_2
    2  A    between atoms: O_2  and  C_3
    3  A    between atoms: C_6  and  C_7
    4  A    between atoms: C_7  and  C_9
    5  A    between atoms: C_15  and  O_16
                            x       y       z     vdW  Elec       q    Type
                         _______ _______ _______ _____ _____    ______ ____

>  <TORSDO>
F 4

$$$$
ox2_shuffle_esm0_ligand
 OpenBabel10092621213D

 18 19  0  0  0  0  0  0  0  0999 V2000
    0.9450    5.2630   -1.1700 C   0  0  0  0  0  0  0  0  0  0  0  0
   -0.3290    5.6080   -0.7330 C   0  0  0  0  0  3  0  0  0  0  0  0
   -1.4260    4.9890   -1.2770 C   0  0  0  0  0  3  0  0  0  0  0  0
   -1.2860    4.0220   -2.2470 C   0  0  0  0  0  0  0  0  0  0  0  0
   -0.0140    3.6930   -2.6960 C   0  0  0  0  0  0  0  0  0  0  0  0
    1.0940    4.3100   -2.1460 C   0  0  0  0  0  3  0  0  0  0  0  0
    3.2470    5.9660   -1.4390 C   0  0  0  0  0  1  0  0  0  0  0  0
    2.0600    5.8250   -0.6540 O   0  0  0  0  0  0  0  0  0  0  0  0
   -2.4430    3.3110   -2.8510 C   0  0  0  0  0  0  0  0  0  0  0  0
   -2.6380    3.4790   -4.0280 O   0  0  0  0  0  0  0  0  0  0  0  0
   -3.3300    2.3660   -2.1410 C   0  0  0  0  0  0  0  0  0  0  0  0
   -3.3240    1.0250   -2.5210 C   0  0  0  0  0  3  0  0  0  0  0  0
   -4.1170    0.1080   -1.8700 C   0  0  0  0  0  3  0  0  0  0  0  0
   -4.9370    0.5010   -0.8320 C   0  0  0  0  0  3  0  0  0  0  0  0
   -4.9400    1.8250   -0.4420 C   0  0  0  0  0  3  0  0  0  0  0  0
   -4.1320    2.7420   -1.0910 C   0  0  0  0  0  3  0  0  0  0  0  0
    0.1120    2.7560   -3.6740 O   0  0  0  0  0  0  0  0  0  0  0  0
   -0.2630    2.9280   -4.5740 H   0  0  0  0  0  0  0  0  0  0  0  0
  1  2  1  0  0  0  0
  1  8  1  0  0  0  0
  3  2  2  0  0  0  0
  4  3  1  0  0  0  0
  5  4  2  0  0  0  0
  5  6  1  0  0  0  0
  6  1  2  0  0  0  0
  7  8  1  0  0  0  0
  9  4  1  0  0  0  0
  9 11  1  0  0  0  0
 10  9  2  0  0  0  0
 11 16  1  0  0  0  0
 12 11  2  0  0  0  0
 12 13  1  0  0  0  0
 13 14  2  0  0  0  0
 14 15  1  0  0  0  0
 16 15  2  0  0  0  0
 17  5  1  0  0  0  0
 18 17  1  0  0  0  0
M  END
>  <MODEL>
6

>  <REMARK>
 VINA RESULT:      -4.9      8.394     10.225
  Name = ox2_shuffle_esm0_ligand
  5 active torsions:
  status: ('A' for Active; 'I' for Inactive)
    1  A    between atoms: C_1  and  O_2
    2  A    between atoms: O_2  and  C_3
    3  A    between atoms: C_6  and  C_7
    4  A    between atoms: C_7  and  C_9
    5  A    between atoms: C_15  and  O_16
                            x       y       z     vdW  Elec       q    Type
                         _______ _______ _______ _____ _____    ______ ____

>  <TORSDO>
F 4

$$$$
ox2_shuffle_esm0_ligand
 OpenBabel10092621213D

 18 19  0  0  0  0  0  0  0  0999 V2000
   -3.9110    2.7820   -1.1580 C   0  0  0  0  0  0  0  0  0  0  0  0
   -4.6070    1.6160   -0.8590 C   0  0  0  0  0  3  0  0  0  0  0  0
   -5.6700    1.6620    0.0070 C   0  0  0  0  0  3  0  0  0  0  0  0
   -6.0660    2.8490    0.5810 C   0  0  0  0  0  0  0  0  0  0  0  0
   -5.3570    4.0090    0.2960 C   0  0  0  0  0  0  0  0  0  0  0  0
   -4.2900    3.9680   -0.5800 C   0  0  0  0  0  3  0  0  0  0  0  0
   -2.4880    1.6220   -2.7390 C   0  0  0  0  0  1  0  0  0  0  0  0
   -2.8700    2.7980   -2.0200 O   0  0  0  0  0  0  0  0  0  0  0  0
   -7.2240    2.9500    1.5080 C   0  0  0  0  0  0  0  0  0  0  0  0
   -8.0700    3.7650    1.2420 O   0  0  0  0  0  0  0  0  0  0  0  0
   -7.4510    2.0900    2.6870 C   0  0  0  0  0  0  0  0  0  0  0  0
   -8.7610    1.7980    3.0630 C   0  0  0  0  0  3  0  0  0  0  0  0
   -9.0170    0.9820    4.1410 C   0  0  0  0  0  3  0  0  0  0  0  0
   -7.9790    0.4420    4.8730 C   0  0  0  0  0  3  0  0  0  0  0  0
   -6.6790    0.7170    4.5010 C   0  0  0  0  0  3  0  0  0  0  0  0
   -6.4260    1.5290    3.4100 C   0  0  0  0  0  3  0  0  0  0  0  0
   -5.7400    5.1710    0.8900 O   0  0  0  0  0  0  0  0  0  0  0  0
   -6.3300    5.1490    1.6850 H   0  0  0  0  0  0  0  0  0  0  0  0
  1  2  2  0  0  0  0
  1  6  1  0  0  0  0
  2  3  1  0  0  0  0
  3  4  2  0  0  0  0
  4  9  1  0  0  0  0
  5  4  1  0  0  0  0
  5 17  1  0  0  0  0
  6  5  2  0  0  0  0
  7  8  1  0  0  0  0
  8  1  1  0  0  0  0
  9 11  1  0  0  0  0
 10  9  2  0  0  0  0
 11 12  2  0  0  0  0
 11 16  1  0  0  0  0
 12 13  1  0  0  0  0
 13 14  2  0  0  0  0
 15 14  1  0  0  0  0
 16 15  2  0  0  0  0
 17 18  1  0  0  0  0
M  END
>  <MODEL>
7

>  <REMARK>
 VINA RESULT:      -4.8      9.045     10.550
  Name = ox2_shuffle_esm0_ligand
  5 active torsions:
  status: ('A' for Active; 'I' for Inactive)
    1  A    between atoms: C_1  and  O_2
    2  A    between atoms: O_2  and  C_3
    3  A    between atoms: C_6  and  C_7
    4  A    between atoms: C_7  and  C_9
    5  A    between atoms: C_15  and  O_16
                            x       y       z     vdW  Elec       q    Type
                         _______ _______ _______ _____ _____    ______ ____

>  <TORSDO>
F 4

$$$$
ox2_shuffle_esm0_ligand
 OpenBabel10092621213D

 18 19  0  0  0  0  0  0  0  0999 V2000
   -1.2830    2.5800    6.8630 C   0  0  0  0  0  0  0  0  0  0  0  0
   -0.9250    1.7690    5.7920 C   0  0  0  0  0  3  0  0  0  0  0  0
    0.2010    0.9900    5.8750 C   0  0  0  0  0  3  0  0  0  0  0  0
    0.9810    0.9910    7.0090 C   0  0  0  0  0  0  0  0  0  0  0  0
    0.6330    1.8170    8.0700 C   0  0  0  0  0  0  0  0  0  0  0  0
   -0.5030    2.5990    7.9920 C   0  0  0  0  0  3  0  0  0  0  0  0
   -2.6140    4.3530    7.8400 C   0  0  0  0  0  1  0  0  0  0  0  0
   -2.3930    3.3510    6.8430 O   0  0  0  0  0  0  0  0  0  0  0  0
    2.1980    0.1490    7.1520 C   0  0  0  0  0  0  0  0  0  0  0  0
    2.0840   -0.8780    7.7710 O   0  0  0  0  0  0  0  0  0  0  0  0
    3.5130    0.4370    6.5430 C   0  0  0  0  0  0  0  0  0  0  0  0
    4.6610   -0.0540    7.1610 C   0  0  0  0  0  3  0  0  0  0  0  0
    5.9040    0.1720    6.6140 C   0  0  0  0  0  3  0  0  0  0  0  0
    6.0340    0.8940    5.4450 C   0  0  0  0  0  3  0  0  0  0  0  0
    4.9010    1.3740    4.8210 C   0  0  0  0  0  3  0  0  0  0  0  0
    3.6530    1.1350    5.3680 C   0  0  0  0  0  3  0  0  0  0  0  0
    1.4270    1.8310    9.1750 O   0  0  0  0  0  0  0  0  0  0  0  0
    1.4160    1.0650    9.8010 H   0  0  0  0  0  0  0  0  0  0  0  0
  1  6  1  0  0  0  0
  2  3  1  0  0  0  0
  2  1  2  0  0  0  0
  3  4  2  0  0  0  0
  4  9  1  0  0  0  0
  4  5  1  0  0  0  0
  5 17  1  0  0  0  0
  6  5  2  0  0  0  0
  8  1  1  0  0  0  0
  8  7  1  0  0  0  0
  9 10  2  0  0  0  0
 11  9  1  0  0  0  0
 11 12  1  0  0  0  0
 13 12  2  0  0  0  0
 14 13  1  0  0  0  0
 15 16  1  0  0  0  0
 15 14  2  0  0  0  0
 16 11  2  0  0  0  0
 17 18  1  0  0  0  0
M  END
>  <MODEL>
8

>  <REMARK>
 VINA RESULT:      -4.8      1.765      2.097
  Name = ox2_shuffle_esm0_ligand
  5 active torsions:
  status: ('A' for Active; 'I' for Inactive)
    1  A    between atoms: C_1  and  O_2
    2  A    between atoms: O_2  and  C_3
    3  A    between atoms: C_6  and  C_7
    4  A    between atoms: C_7  and  C_9
    5  A    between atoms: C_15  and  O_16
                            x       y       z     vdW  Elec       q    Type
                         _______ _______ _______ _____ _____    ______ ____

>  <TORSDO>
F 4

$$$$
ox2_shuffle_esm0_ligand
 OpenBabel10092621213D

 18 19  0  0  0  0  0  0  0  0999 V2000
    6.5860    6.4300   -1.8620 C   0  0  0  0  0  0  0  0  0  0  0  0
    7.6690    5.9790   -2.6070 C   0  0  0  0  0  3  0  0  0  0  0  0
    7.6980    6.1930   -3.9620 C   0  0  0  0  0  3  0  0  0  0  0  0
    6.6720    6.8550   -4.5970 C   0  0  0  0  0  0  0  0  0  0  0  0
    5.5820    7.2870   -3.8540 C   0  0  0  0  0  0  0  0  0  0  0  0
    5.5510    7.0790   -2.4890 C   0  0  0  0  0  3  0  0  0  0  0  0
    7.6910    6.3100    0.2910 C   0  0  0  0  0  1  0  0  0  0  0  0
    6.5150    6.2660   -0.5220 O   0  0  0  0  0  0  0  0  0  0  0  0
    6.6700    7.1270   -6.0600 C   0  0  0  0  0  0  0  0  0  0  0  0
    6.8240    8.2710   -6.4050 O   0  0  0  0  0  0  0  0  0  0  0  0
    6.5610    6.1030   -7.1180 C   0  0  0  0  0  0  0  0  0  0  0  0
    7.6750    5.3170   -7.4090 C   0  0  0  0  0  3  0  0  0  0  0  0
    7.6100    4.3360   -8.3720 C   0  0  0  0  0  3  0  0  0  0  0  0
    6.4400    4.1160   -9.0700 C   0  0  0  0  0  3  0  0  0  0  0  0
    5.3290    4.8810   -8.7790 C   0  0  0  0  0  3  0  0  0  0  0  0
    5.3960    5.8590   -7.8030 C   0  0  0  0  0  3  0  0  0  0  0  0
    4.5610    7.9160   -4.4960 O   0  0  0  0  0  0  0  0  0  0  0  0
    4.0950    7.4650   -5.2440 H   0  0  0  0  0  0  0  0  0  0  0  0
  1  8  1  0  0  0  0
  2  1  2  0  0  0  0
  3  2  1  0  0  0  0
  4  3  2  0  0  0  0
  4  5  1  0  0  0  0
  5  6  2  0  0  0  0
  6  1  1  0  0  0  0
  8  7  1  0  0  0  0
  9  4  1  0  0  0  0
 10  9  2  0  0  0  0
 11  9  1  0  0  0  0
 12 11  1  0  0  0  0
 13 12  2  0  0  0  0
 14 15  2  0  0  0  0
 14 13  1  0  0  0  0
 15 16  1  0  0  0  0
 16 11  2  0  0  0  0
 17  5  1  0  0  0  0
 18 17  1  0  0  0  0
M  END
>  <MODEL>
9

>  <REMARK>
 VINA RESULT:      -4.7     11.736     13.557
  Name = ox2_shuffle_esm0_ligand
  5 active torsions:
  status: ('A' for Active; 'I' for Inactive)
    1  A    between atoms: C_1  and  O_2
    2  A    between atoms: O_2  and  C_3
    3  A    between atoms: C_6  and  C_7
    4  A    between atoms: C_7  and  C_9
    5  A    between atoms: C_15  and  O_16
                            x       y       z     vdW  Elec       q    Type
                         _______ _______ _______ _____ _____    ______ ____

>  <TORSDO>
F 4

$$$$
