ox3_orig_f8_dockpose1
     RDKit          3D

 17 18  0  0  0  0  0  0  0  0999 V2000
    0.2020    2.7020    1.5580 C   0  0  0  0  0  0  0  0  0  0  0  0
    0.0160    2.0230    0.3160 O   0  0  0  0  0  0  0  0  0  0  0  0
   -0.2080    0.6670    0.2960 C   0  0  0  0  0  0  0  0  0  0  0  0
   -1.3660    0.0930    0.8230 C   0  0  0  0  0  0  0  0  0  0  0  0
   -1.5410   -1.2810    0.7790 C   0  0  0  0  0  0  0  0  0  0  0  0
   -0.5650   -2.0980    0.2160 C   0  0  0  0  0  0  0  0  0  0  0  0
   -0.7450   -3.5880    0.1530 C   0  0  0  0  0  0  0  0  0  0  0  0
   -0.5270   -4.2330    1.1510 O   0  0  0  0  0  0  0  0  0  0  0  0
   -1.1420   -4.2920   -1.0910 C   0  0  0  0  0  0  0  0  0  0  0  0
   -0.7280   -3.8480   -2.3400 C   0  0  0  0  0  0  0  0  0  0  0  0
   -1.1440   -4.5040   -3.4830 C   0  0  0  0  0  0  0  0  0  0  0  0
   -1.9300   -5.6370   -3.4040 C   0  0  0  0  0  0  0  0  0  0  0  0
   -2.3610   -6.0790   -2.1650 C   0  0  0  0  0  0  0  0  0  0  0  0
   -1.9870   -5.3990   -1.0050 C   0  0  0  0  0  0  0  0  0  0  0  0
    0.5830   -1.5130   -0.3160 C   0  0  0  0  0  0  0  0  0  0  0  0
    1.5330   -2.3030   -0.8920 O   0  0  0  0  0  0  0  0  0  0  0  0
    0.7500   -0.1340   -0.2720 C   0  0  0  0  0  0  0  0  0  0  0  0
  2  1  1  0
  3  2  1  0
  4  3  1  0
  5  4  2  0
  6  5  1  0
  7  6  1  0
  8  7  2  0
  9  7  1  0
 10  9  2  0
 11 10  1  0
 12 11  2  0
 13 12  1  0
 14 13  2  0
 14  9  1  0
 15  6  2  0
 16 15  1  0
 17 15  1  0
 17  3  2  0
M  END
$$$$
