ox2_shuffle_esm0_dockpose9
     RDKit          3D

 17 18  0  0  0  0  0  0  0  0999 V2000
    5.1390   -1.1770    2.0400 C   0  0  0  0  0  0  0  0  0  0  0  0
    4.5220   -2.4630    2.1410 O   0  0  0  0  0  0  0  0  0  0  0  0
    3.4040   -2.7580    1.4390 C   0  0  0  0  0  0  0  0  0  0  0  0
    2.4740   -1.7880    1.0860 C   0  0  0  0  0  0  0  0  0  0  0  0
    1.3450   -2.1480    0.3930 C   0  0  0  0  0  0  0  0  0  0  0  0
    1.1160   -3.4590    0.0450 C   0  0  0  0  0  0  0  0  0  0  0  0
   -0.1000   -3.8990   -0.6900 C   0  0  0  0  0  0  0  0  0  0  0  0
    0.0680   -4.5110   -1.7140 O   0  0  0  0  0  0  0  0  0  0  0  0
   -1.4900   -3.7030   -0.2320 C   0  0  0  0  0  0  0  0  0  0  0  0
   -1.7210   -2.9160    0.8960 C   0  0  0  0  0  0  0  0  0  0  0  0
   -3.0030   -2.6890    1.3440 C   0  0  0  0  0  0  0  0  0  0  0  0
   -4.0830   -3.2400    0.6850 C   0  0  0  0  0  0  0  0  0  0  0  0
   -3.8640   -4.0100   -0.4400 C   0  0  0  0  0  0  0  0  0  0  0  0
   -2.5750   -4.2260   -0.8920 C   0  0  0  0  0  0  0  0  0  0  0  0
    2.0570   -4.4230    0.3800 C   0  0  0  0  0  0  0  0  0  0  0  0
    1.8330   -5.7120    0.0070 O   0  0  0  0  0  0  0  0  0  0  0  0
    3.1910   -4.0670    1.0840 C   0  0  0  0  0  0  0  0  0  0  0  0
  2  1  1  0
  3  2  1  0
  4  3  1  0
  5  4  2  0
  6  5  1  0
  7  6  1  0
  8  7  2  0
  9  7  1  0
 10  9  2  0
 11 10  1  0
 12 11  2  0
 13 12  1  0
 14 13  2  0
 14  9  1  0
 15  6  2  0
 16 15  1  0
 17 15  1  0
 17  3  2  0
M  END
$$$$
