ox1_orig_f12_ligand
     RDKit          3D

 29 30  0  0  0  0  0  0  0  0999 V2000
   -2.2211   -5.3843    3.7556 C   0  0  0  0  0  0  0  0  0  0  0  0
   -3.3999   -4.8234    3.2251 O   0  0  0  0  0  0  0  0  0  0  0  0
   -3.3359   -3.6673    2.4941 C   0  0  0  0  0  0  0  0  0  0  0  0
   -4.5116   -3.1860    1.9280 C   0  0  0  0  0  0  0  0  0  0  0  0
   -4.4918   -2.0158    1.1821 C   0  0  0  0  0  0  0  0  0  0  0  0
   -3.3058   -1.3091    1.0028 C   0  0  0  0  0  0  0  0  0  0  0  0
   -3.2599   -0.0396    0.1950 C   0  0  0  0  0  0  0  0  0  0  0  0
   -2.1735    0.4542   -0.0264 O   0  0  0  0  0  0  0  0  0  0  0  0
   -4.4672    0.6063   -0.3692 C   0  0  0  0  0  0  0  0  0  0  0  0
   -5.6324    0.7506    0.3730 C   0  0  0  0  0  0  0  0  0  0  0  0
   -6.7445    1.3480   -0.1756 C   0  0  0  0  0  0  0  0  0  0  0  0
   -6.7110    1.8151   -1.4800 C   0  0  0  0  0  0  0  0  0  0  0  0
   -5.5485    1.6955   -2.2293 C   0  0  0  0  0  0  0  0  0  0  0  0
   -4.4125    1.1101   -1.6762 C   0  0  0  0  0  0  0  0  0  0  0  0
   -2.1325   -1.7993    1.5659 C   0  0  0  0  0  0  0  0  0  0  0  0
   -0.9769   -1.1140    1.3766 O   0  0  0  0  0  0  0  0  0  0  0  0
   -2.1541   -2.9730    2.3018 C   0  0  0  0  0  0  0  0  0  0  0  0
   -1.8208   -4.7235    4.5386 H   0  0  0  0  0  0  0  0  0  0  0  0
   -2.4465   -6.3703    4.1880 H   0  0  0  0  0  0  0  0  0  0  0  0
   -1.4758   -5.4969    2.9545 H   0  0  0  0  0  0  0  0  0  0  0  0
   -5.4557   -3.7320    2.0712 H   0  0  0  0  0  0  0  0  0  0  0  0
   -5.4220   -1.6432    0.7282 H   0  0  0  0  0  0  0  0  0  0  0  0
   -5.6668    0.3837    1.4095 H   0  0  0  0  0  0  0  0  0  0  0  0
   -7.6616    1.4550    0.4224 H   0  0  0  0  0  0  0  0  0  0  0  0
   -7.6048    2.2802   -1.9212 H   0  0  0  0  0  0  0  0  0  0  0  0
   -5.5246    2.0651   -3.2650 H   0  0  0  0  0  0  0  0  0  0  0  0
   -3.4819    1.0437   -2.2589 H   0  0  0  0  0  0  0  0  0  0  0  0
   -0.1327   -1.4489    1.7703 H   0  0  0  0  0  0  0  0  0  0  0  0
   -1.2206   -3.3577    2.7385 H   0  0  0  0  0  0  0  0  0  0  0  0
  2  1  1  0
  3  2  1  0
  4  3  1  0
  5  4  2  0
  6  5  1  0
  7  6  1  0
  8  7  2  0
  9  7  1  0
 10  9  2  0
 11 10  1  0
 12 11  2  0
 13 12  1  0
 14 13  2  0
 14  9  1  0
 15  6  2  0
 16 15  1  0
 17 15  1  0
 17  3  2  0
  1 18  1  0
  1 19  1  0
  1 20  1  0
  4 21  1  0
  5 22  1  0
 10 23  1  0
 11 24  1  0
 12 25  1  0
 13 26  1  0
 14 27  1  0
 16 28  1  0
 17 29  1  0
M  END
$$$$
