ox1_orig_f12_ligand
 OpenBabel10092621193D

 18 19  0  0  0  0  0  0  0  0999 V2000
   -5.9280   -1.9850    4.6700 C   0  0  0  0  0  0  0  0  0  0  0  0
   -5.5810   -0.9840    3.7680 C   0  0  0  0  0  3  0  0  0  0  0  0
   -4.4490   -1.1280    2.9780 C   0  0  0  0  0  3  0  0  0  0  0  0
   -3.6480   -2.2610    3.0860 C   0  0  0  0  0  0  0  0  0  0  0  0
   -4.0040   -3.2620    3.9850 C   0  0  0  0  0  0  0  0  0  0  0  0
   -5.1410   -3.1190    4.7650 C   0  0  0  0  0  3  0  0  0  0  0  0
   -7.0100   -0.9400    6.5460 C   0  0  0  0  0  1  0  0  0  0  0  0
   -7.0510   -1.8020    5.4320 O   0  0  0  0  0  0  0  0  0  0  0  0
   -2.4180   -2.4400    2.2370 C   0  0  0  0  0  0  0  0  0  0  0  0
   -1.3380   -2.4260    2.7900 O   0  0  0  0  0  0  0  0  0  0  0  0
   -2.4690   -2.6670    0.7750 C   0  0  0  0  0  0  0  0  0  0  0  0
   -2.6090   -3.9400    0.2380 C   0  0  0  0  0  3  0  0  0  0  0  0
   -2.6460   -4.1280   -1.1260 C   0  0  0  0  0  3  0  0  0  0  0  0
   -2.5460   -3.0410   -1.9800 C   0  0  0  0  0  3  0  0  0  0  0  0
   -2.4250   -1.7590   -1.4590 C   0  0  0  0  0  3  0  0  0  0  0  0
   -2.4050   -1.5590   -0.0810 C   0  0  0  0  0  3  0  0  0  0  0  0
   -3.2280   -4.3700    4.0760 O   0  0  0  0  0  0  0  0  0  0  0  0
   -3.1900   -5.0110    3.3240 H   0  0  0  0  0  0  0  0  0  0  0  0
  1  6  1  0  0  0  0
  1  8  1  0  0  0  0
  2  1  2  0  0  0  0
  3  4  2  0  0  0  0
  3  2  1  0  0  0  0
  4  5  1  0  0  0  0
  5 17  1  0  0  0  0
  5  6  2  0  0  0  0
  8  7  1  0  0  0  0
  9 10  2  0  0  0  0
  9  4  1  0  0  0  0
 11  9  1  0  0  0  0
 12 11  1  0  0  0  0
 13 12  2  0  0  0  0
 14 15  2  0  0  0  0
 14 13  1  0  0  0  0
 15 16  1  0  0  0  0
 16 11  2  0  0  0  0
 18 17  1  0  0  0  0
M  END
>  <MODEL>
1

>  <REMARK>
 VINA RESULT:      -4.6      0.000      0.000
  Name = ox1_orig_f12_ligand
  5 active torsions:
  status: ('A' for Active; 'I' for Inactive)
    1  A    between atoms: C_1  and  O_2
    2  A    between atoms: O_2  and  C_3
    3  A    between atoms: C_6  and  C_7
    4  A    between atoms: C_7  and  C_9
    5  A    between atoms: C_15  and  O_16
                            x       y       z     vdW  Elec       q    Type
                         _______ _______ _______ _____ _____    ______ ____

>  <TORSDO>
F 4

$$$$
ox1_orig_f12_ligand
 OpenBabel10092621193D

 18 19  0  0  0  0  0  0  0  0999 V2000
   -2.5590   -1.8420   -2.1720 C   0  0  0  0  0  0  0  0  0  0  0  0
   -2.7830   -0.7210   -1.3800 C   0  0  0  0  0  3  0  0  0  0  0  0
   -2.7620   -0.8360    0.0030 C   0  0  0  0  0  3  0  0  0  0  0  0
   -2.5310   -2.0680    0.6090 C   0  0  0  0  0  0  0  0  0  0  0  0
   -2.3010   -3.1840   -0.1900 C   0  0  0  0  0  0  0  0  0  0  0  0
   -2.3120   -3.0630   -1.5700 C   0  0  0  0  0  3  0  0  0  0  0  0
   -3.8250   -1.5060   -4.1890 C   0  0  0  0  0  1  0  0  0  0  0  0
   -2.5910   -1.6850   -3.5320 O   0  0  0  0  0  0  0  0  0  0  0  0
   -2.5000   -2.2170    2.1060 C   0  0  0  0  0  0  0  0  0  0  0  0
   -1.4280   -2.4250    2.6350 O   0  0  0  0  0  0  0  0  0  0  0  0
   -3.7030   -2.0830    2.9590 C   0  0  0  0  0  0  0  0  0  0  0  0
   -4.5050   -0.9500    2.9170 C   0  0  0  0  0  3  0  0  0  0  0  0
   -5.6150   -0.8450    3.7260 C   0  0  0  0  0  3  0  0  0  0  0  0
   -5.9450   -1.8760    4.5900 C   0  0  0  0  0  3  0  0  0  0  0  0
   -5.1650   -3.0250    4.6300 C   0  0  0  0  0  3  0  0  0  0  0  0
   -4.0520   -3.1470    3.8020 C   0  0  0  0  0  3  0  0  0  0  0  0
   -2.0620   -4.3790    0.4050 O   0  0  0  0  0  0  0  0  0  0  0  0
   -2.1920   -5.2190   -0.1020 H   0  0  0  0  0  0  0  0  0  0  0  0
  1  6  2  0  0  0  0
  1  2  1  0  0  0  0
  2  3  2  0  0  0  0
  3  4  1  0  0  0  0
  4  9  1  0  0  0  0
  5 17  1  0  0  0  0
  5  4  2  0  0  0  0
  6  5  1  0  0  0  0
  7  8  1  0  0  0  0
  8  1  1  0  0  0  0
  9 10  2  0  0  0  0
  9 11  1  0  0  0  0
 11 16  1  0  0  0  0
 12 11  2  0  0  0  0
 12 13  1  0  0  0  0
 13 14  2  0  0  0  0
 14 15  1  0  0  0  0
 16 15  2  0  0  0  0
 18 17  1  0  0  0  0
M  END
>  <MODEL>
2

>  <REMARK>
 VINA RESULT:      -4.2      1.958      6.006
  Name = ox1_orig_f12_ligand
  5 active torsions:
  status: ('A' for Active; 'I' for Inactive)
    1  A    between atoms: C_1  and  O_2
    2  A    between atoms: O_2  and  C_3
    3  A    between atoms: C_6  and  C_7
    4  A    between atoms: C_7  and  C_9
    5  A    between atoms: C_15  and  O_16
                            x       y       z     vdW  Elec       q    Type
                         _______ _______ _______ _____ _____    ______ ____

>  <TORSDO>
F 4

$$$$
ox1_orig_f12_ligand
 OpenBabel10092621193D

 18 19  0  0  0  0  0  0  0  0999 V2000
   -5.9560   -3.4750    4.3760 C   0  0  0  0  0  0  0  0  0  0  0  0
   -5.4140   -4.4860    3.5900 C   0  0  0  0  0  3  0  0  0  0  0  0
   -4.2890   -4.2320    2.8170 C   0  0  0  0  0  3  0  0  0  0  0  0
   -3.7030   -2.9690    2.8100 C   0  0  0  0  0  0  0  0  0  0  0  0
   -4.2470   -1.9640    3.6030 C   0  0  0  0  0  0  0  0  0  0  0  0
   -5.3640   -2.2240    4.3820 C   0  0  0  0  0  3  0  0  0  0  0  0
   -7.3010   -3.0800    6.3300 C   0  0  0  0  0  1  0  0  0  0  0  0
   -7.0670   -3.7660    5.1210 O   0  0  0  0  0  0  0  0  0  0  0  0
   -2.4820   -2.6730    1.9820 C   0  0  0  0  0  0  0  0  0  0  0  0
   -1.4180   -2.5690    2.5560 O   0  0  0  0  0  0  0  0  0  0  0  0
   -2.5140   -2.5400    0.5080 C   0  0  0  0  0  0  0  0  0  0  0  0
   -2.5390   -1.2980   -0.1130 C   0  0  0  0  0  3  0  0  0  0  0  0
   -2.5780   -1.2000   -1.4870 C   0  0  0  0  0  3  0  0  0  0  0  0
   -2.5880   -2.3460   -2.2650 C   0  0  0  0  0  3  0  0  0  0  0  0
   -2.5430   -3.5960   -1.6610 C   0  0  0  0  0  3  0  0  0  0  0  0
   -2.4860   -3.7040   -0.2730 C   0  0  0  0  0  3  0  0  0  0  0  0
   -3.6640   -0.7400    3.6030 O   0  0  0  0  0  0  0  0  0  0  0  0
   -3.1080   -0.4570    2.8360 H   0  0  0  0  0  0  0  0  0  0  0  0
  1  6  1  0  0  0  0
  1  8  1  0  0  0  0
  2  1  2  0  0  0  0
  3  2  1  0  0  0  0
  4  3  2  0  0  0  0
  4  5  1  0  0  0  0
  5 17  1  0  0  0  0
  5  6  2  0  0  0  0
  8  7  1  0  0  0  0
  9 10  2  0  0  0  0
  9  4  1  0  0  0  0
 11  9  1  0  0  0  0
 12 11  1  0  0  0  0
 13 12  2  0  0  0  0
 14 15  2  0  0  0  0
 14 13  1  0  0  0  0
 15 16  1  0  0  0  0
 16 11  2  0  0  0  0
 18 17  1  0  0  0  0
M  END
>  <MODEL>
3

>  <REMARK>
 VINA RESULT:      -4.2      1.284      2.097
  Name = ox1_orig_f12_ligand
  5 active torsions:
  status: ('A' for Active; 'I' for Inactive)
    1  A    between atoms: C_1  and  O_2
    2  A    between atoms: O_2  and  C_3
    3  A    between atoms: C_6  and  C_7
    4  A    between atoms: C_7  and  C_9
    5  A    between atoms: C_15  and  O_16
                            x       y       z     vdW  Elec       q    Type
                         _______ _______ _______ _____ _____    ______ ____

>  <TORSDO>
F 4

$$$$
ox1_orig_f12_ligand
 OpenBabel10092621193D

 18 19  0  0  0  0  0  0  0  0999 V2000
   -2.7680   -5.3400    1.5280 C   0  0  0  0  0  0  0  0  0  0  0  0
   -4.1000   -4.9540    1.4270 C   0  0  0  0  0  3  0  0  0  0  0  0
   -4.4640   -3.6450    1.7100 C   0  0  0  0  0  3  0  0  0  0  0  0
   -3.5080   -2.7130    2.1050 C   0  0  0  0  0  0  0  0  0  0  0  0
   -2.1760   -3.1040    2.1960 C   0  0  0  0  0  0  0  0  0  0  0  0
   -1.8150   -4.4090    1.9040 C   0  0  0  0  0  3  0  0  0  0  0  0
   -1.1150   -6.9970    0.9700 C   0  0  0  0  0  1  0  0  0  0  0  0
   -2.4520   -6.6420    1.2430 O   0  0  0  0  0  0  0  0  0  0  0  0
   -3.8790   -1.2870    2.4120 C   0  0  0  0  0  0  0  0  0  0  0  0
   -3.6620   -0.8720    3.5320 O   0  0  0  0  0  0  0  0  0  0  0  0
   -4.4570   -0.3650    1.4080 C   0  0  0  0  0  0  0  0  0  0  0  0
   -3.7820   -0.0460    0.2370 C   0  0  0  0  0  3  0  0  0  0  0  0
   -4.3360    0.8210   -0.6790 C   0  0  0  0  0  3  0  0  0  0  0  0
   -5.5800    1.3820   -0.4400 C   0  0  0  0  0  3  0  0  0  0  0  0
   -6.2770    1.0580    0.7160 C   0  0  0  0  0  3  0  0  0  0  0  0
   -5.7320    0.1680    1.6390 C   0  0  0  0  0  3  0  0  0  0  0  0
   -1.2470   -2.1880    2.5680 O   0  0  0  0  0  0  0  0  0  0  0  0
   -1.3850   -1.6480    3.3850 H   0  0  0  0  0  0  0  0  0  0  0  0
  1  6  1  0  0  0  0
  2  1  2  0  0  0  0
  2  3  1  0  0  0  0
  3  4  2  0  0  0  0
  4  5  1  0  0  0  0
  4  9  1  0  0  0  0
  5 17  1  0  0  0  0
  6  5  2  0  0  0  0
  7  8  1  0  0  0  0
  8  1  1  0  0  0  0
  9 10  2  0  0  0  0
 11 16  1  0  0  0  0
 11  9  1  0  0  0  0
 12 11  2  0  0  0  0
 13 14  2  0  0  0  0
 13 12  1  0  0  0  0
 14 15  1  0  0  0  0
 15 16  2  0  0  0  0
 17 18  1  0  0  0  0
M  END
>  <MODEL>
4

>  <REMARK>
 VINA RESULT:      -4.2      2.730      4.899
  Name = ox1_orig_f12_ligand
  5 active torsions:
  status: ('A' for Active; 'I' for Inactive)
    1  A    between atoms: C_1  and  O_2
    2  A    between atoms: O_2  and  C_3
    3  A    between atoms: C_6  and  C_7
    4  A    between atoms: C_7  and  C_9
    5  A    between atoms: C_15  and  O_16
                            x       y       z     vdW  Elec       q    Type
                         _______ _______ _______ _____ _____    ______ ____

>  <TORSDO>
F 4

$$$$
ox1_orig_f12_ligand
 OpenBabel10092621193D

 18 19  0  0  0  0  0  0  0  0999 V2000
   -4.3920   -0.2380   -0.3830 C   0  0  0  0  0  0  0  0  0  0  0  0
   -4.7140   -0.0970    0.9630 C   0  0  0  0  0  3  0  0  0  0  0  0
   -4.0770   -0.8850    1.9120 C   0  0  0  0  0  3  0  0  0  0  0  0
   -3.1240   -1.8250    1.5300 C   0  0  0  0  0  0  0  0  0  0  0  0
   -2.8010   -1.9560    0.1830 C   0  0  0  0  0  0  0  0  0  0  0  0
   -3.4320   -1.1610   -0.7610 C   0  0  0  0  0  3  0  0  0  0  0  0
   -4.5600    1.8500   -1.5650 C   0  0  0  0  0  1  0  0  0  0  0  0
   -5.0460    0.5560   -1.2860 O   0  0  0  0  0  0  0  0  0  0  0  0
   -2.4180   -2.6870    2.5420 C   0  0  0  0  0  0  0  0  0  0  0  0
   -1.2600   -2.4290    2.7990 O   0  0  0  0  0  0  0  0  0  0  0  0
   -3.0780   -3.8020    3.2580 C   0  0  0  0  0  0  0  0  0  0  0  0
   -4.0300   -3.5750    4.2440 C   0  0  0  0  0  3  0  0  0  0  0  0
   -4.6240   -4.6280    4.9030 C   0  0  0  0  0  3  0  0  0  0  0  0
   -4.2780   -5.9310    4.5840 C   0  0  0  0  0  3  0  0  0  0  0  0
   -3.3430   -6.1760    3.5870 C   0  0  0  0  0  3  0  0  0  0  0  0
   -2.7500   -5.1180    2.9030 C   0  0  0  0  0  3  0  0  0  0  0  0
   -1.8630   -2.8640   -0.1830 O   0  0  0  0  0  0  0  0  0  0  0  0
   -0.9330   -2.5720   -0.3570 H   0  0  0  0  0  0  0  0  0  0  0  0
  1  2  1  0  0  0  0
  2  3  2  0  0  0  0
  4  3  1  0  0  0  0
  4  9  1  0  0  0  0
  5  4  2  0  0  0  0
  6  1  2  0  0  0  0
  6  5  1  0  0  0  0
  7  8  1  0  0  0  0
  8  1  1  0  0  0  0
  9 10  2  0  0  0  0
  9 11  1  0  0  0  0
 11 12  1  0  0  0  0
 12 13  2  0  0  0  0
 14 13  1  0  0  0  0
 15 14  2  0  0  0  0
 16 11  2  0  0  0  0
 16 15  1  0  0  0  0
 17  5  1  0  0  0  0
 18 17  1  0  0  0  0
M  END
>  <MODEL>
5

>  <REMARK>
 VINA RESULT:      -4.2      2.536      5.115
  Name = ox1_orig_f12_ligand
  5 active torsions:
  status: ('A' for Active; 'I' for Inactive)
    1  A    between atoms: C_1  and  O_2
    2  A    between atoms: O_2  and  C_3
    3  A    between atoms: C_6  and  C_7
    4  A    between atoms: C_7  and  C_9
    5  A    between atoms: C_15  and  O_16
                            x       y       z     vdW  Elec       q    Type
                         _______ _______ _______ _____ _____    ______ ____

>  <TORSDO>
F 4

$$$$
ox1_orig_f12_ligand
 OpenBabel10092621193D

 18 19  0  0  0  0  0  0  0  0999 V2000
   -2.8240   -1.2850   -3.5460 C   0  0  0  0  0  0  0  0  0  0  0  0
   -3.3210   -2.4370   -2.9460 C   0  0  0  0  0  3  0  0  0  0  0  0
   -3.4160   -2.5110   -1.5630 C   0  0  0  0  0  3  0  0  0  0  0  0
   -3.0080   -1.4440   -0.7670 C   0  0  0  0  0  0  0  0  0  0  0  0
   -2.5190   -0.2920   -1.3730 C   0  0  0  0  0  0  0  0  0  0  0  0
   -2.4340   -0.2190   -2.7540 C   0  0  0  0  0  3  0  0  0  0  0  0
   -3.0680   -2.4050   -5.6600 C   0  0  0  0  0  1  0  0  0  0  0  0
   -2.7440   -1.2550   -4.9120 O   0  0  0  0  0  0  0  0  0  0  0  0
   -3.1060   -1.5000    0.7340 C   0  0  0  0  0  0  0  0  0  0  0  0
   -2.1780   -1.9880    1.3470 O   0  0  0  0  0  0  0  0  0  0  0  0
   -4.2560   -0.9580    1.4920 C   0  0  0  0  0  0  0  0  0  0  0  0
   -5.2630   -0.2310    0.8710 C   0  0  0  0  0  3  0  0  0  0  0  0
   -6.3190    0.2710    1.5980 C   0  0  0  0  0  3  0  0  0  0  0  0
   -6.3890    0.0510    2.9640 C   0  0  0  0  0  3  0  0  0  0  0  0
   -5.4010   -0.6910    3.5980 C   0  0  0  0  0  3  0  0  0  0  0  0
   -4.3390   -1.2180    2.8680 C   0  0  0  0  0  3  0  0  0  0  0  0
   -2.1360    0.7490   -0.5930 O   0  0  0  0  0  0  0  0  0  0  0  0
   -1.1830    0.8600   -0.3480 H   0  0  0  0  0  0  0  0  0  0  0  0
  1  2  2  0  0  0  0
  1  6  1  0  0  0  0
  2  3  1  0  0  0  0
  3  4  2  0  0  0  0
  4  9  1  0  0  0  0
  5  4  1  0  0  0  0
  5 17  1  0  0  0  0
  6  5  2  0  0  0  0
  7  8  1  0  0  0  0
  8  1  1  0  0  0  0
  9 10  2  0  0  0  0
  9 11  1  0  0  0  0
 11 16  1  0  0  0  0
 12 11  2  0  0  0  0
 12 13  1  0  0  0  0
 13 14  2  0  0  0  0
 14 15  1  0  0  0  0
 16 15  2  0  0  0  0
 17 18  1  0  0  0  0
M  END
>  <MODEL>
6

>  <REMARK>
 VINA RESULT:      -4.1      2.825      6.838
  Name = ox1_orig_f12_ligand
  5 active torsions:
  status: ('A' for Active; 'I' for Inactive)
    1  A    between atoms: C_1  and  O_2
    2  A    between atoms: O_2  and  C_3
    3  A    between atoms: C_6  and  C_7
    4  A    between atoms: C_7  and  C_9
    5  A    between atoms: C_15  and  O_16
                            x       y       z     vdW  Elec       q    Type
                         _______ _______ _______ _____ _____    ______ ____

>  <TORSDO>
F 4

$$$$
ox1_orig_f12_ligand
 OpenBabel10092621193D

 18 19  0  0  0  0  0  0  0  0999 V2000
   -3.7830   -2.1880   -4.4700 C   0  0  0  0  0  0  0  0  0  0  0  0
   -4.6600   -2.5110   -3.4410 C   0  0  0  0  0  3  0  0  0  0  0  0
   -4.5420   -1.8830   -2.2090 C   0  0  0  0  0  3  0  0  0  0  0  0
   -3.5440   -0.9380   -1.9870 C   0  0  0  0  0  0  0  0  0  0  0  0
   -2.6730   -0.6150   -3.0220 C   0  0  0  0  0  0  0  0  0  0  0  0
   -2.8000   -1.2360   -4.2540 C   0  0  0  0  0  3  0  0  0  0  0  0
   -2.9120   -2.7560   -6.6390 C   0  0  0  0  0  1  0  0  0  0  0  0
   -3.9320   -2.8320   -5.6690 O   0  0  0  0  0  0  0  0  0  0  0  0
   -3.3990   -0.2420   -0.6600 C   0  0  0  0  0  0  0  0  0  0  0  0
   -3.3070    0.9670   -0.6600 O   0  0  0  0  0  0  0  0  0  0  0  0
   -3.4010   -0.9590    0.6360 C   0  0  0  0  0  0  0  0  0  0  0  0
   -2.4530   -1.9290    0.9360 C   0  0  0  0  0  3  0  0  0  0  0  0
   -2.4810   -2.5880    2.1450 C   0  0  0  0  0  3  0  0  0  0  0  0
   -3.4580   -2.2850    3.0790 C   0  0  0  0  0  3  0  0  0  0  0  0
   -4.4010   -1.3040    2.8030 C   0  0  0  0  0  3  0  0  0  0  0  0
   -4.3700   -0.6200    1.5900 C   0  0  0  0  0  3  0  0  0  0  0  0
   -1.7110    0.3160   -2.8050 O   0  0  0  0  0  0  0  0  0  0  0  0
   -1.1370    0.2560   -2.0010 H   0  0  0  0  0  0  0  0  0  0  0  0
  1  6  2  0  0  0  0
  1  2  1  0  0  0  0
  2  3  2  0  0  0  0
  3  4  1  0  0  0  0
  4  9  1  0  0  0  0
  5 17  1  0  0  0  0
  5  4  2  0  0  0  0
  6  5  1  0  0  0  0
  7  8  1  0  0  0  0
  8  1  1  0  0  0  0
  9 10  2  0  0  0  0
  9 11  1  0  0  0  0
 11 12  2  0  0  0  0
 11 16  1  0  0  0  0
 12 13  1  0  0  0  0
 13 14  2  0  0  0  0
 15 14  1  0  0  0  0
 16 15  2  0  0  0  0
 17 18  1  0  0  0  0
M  END
>  <MODEL>
7

>  <REMARK>
 VINA RESULT:      -4.1      3.507      7.137
  Name = ox1_orig_f12_ligand
  5 active torsions:
  status: ('A' for Active; 'I' for Inactive)
    1  A    between atoms: C_1  and  O_2
    2  A    between atoms: O_2  and  C_3
    3  A    between atoms: C_6  and  C_7
    4  A    between atoms: C_7  and  C_9
    5  A    between atoms: C_15  and  O_16
                            x       y       z     vdW  Elec       q    Type
                         _______ _______ _______ _____ _____    ______ ____

>  <TORSDO>
F 4

$$$$
ox1_orig_f12_ligand
 OpenBabel10092621193D

 18 19  0  0  0  0  0  0  0  0999 V2000
   -4.9850   -1.2850    2.9530 C   0  0  0  0  0  0  0  0  0  0  0  0
   -5.6410   -0.4820    2.0260 C   0  0  0  0  0  3  0  0  0  0  0  0
   -5.0130   -0.1460    0.8350 C   0  0  0  0  0  3  0  0  0  0  0  0
   -3.7240   -0.5950    0.5610 C   0  0  0  0  0  0  0  0  0  0  0  0
   -3.0760   -1.4040    1.4890 C   0  0  0  0  0  0  0  0  0  0  0  0
   -3.7100   -1.7460    2.6730 C   0  0  0  0  0  3  0  0  0  0  0  0
   -5.6050   -2.9090    4.6150 C   0  0  0  0  0  1  0  0  0  0  0  0
   -5.6390   -1.5910    4.1160 O   0  0  0  0  0  0  0  0  0  0  0  0
   -3.0250   -0.2460   -0.7250 C   0  0  0  0  0  0  0  0  0  0  0  0
   -2.3150    0.7380   -0.7370 O   0  0  0  0  0  0  0  0  0  0  0  0
   -3.1350   -1.0630   -1.9550 C   0  0  0  0  0  0  0  0  0  0  0  0
   -3.6400   -2.3570   -1.9300 C   0  0  0  0  0  3  0  0  0  0  0  0
   -3.7250   -3.1010   -3.0850 C   0  0  0  0  0  3  0  0  0  0  0  0
   -3.3070   -2.5610   -4.2910 C   0  0  0  0  0  3  0  0  0  0  0  0
   -2.8170   -1.2630   -4.3370 C   0  0  0  0  0  3  0  0  0  0  0  0
   -2.7450   -0.4970   -3.1760 C   0  0  0  0  0  3  0  0  0  0  0  0
   -1.8260   -1.8510    1.2110 O   0  0  0  0  0  0  0  0  0  0  0  0
   -1.1090   -1.7690    1.8880 H   0  0  0  0  0  0  0  0  0  0  0  0
  1  8  1  0  0  0  0
  2  1  2  0  0  0  0
  3  2  1  0  0  0  0
  4  3  2  0  0  0  0
  4  5  1  0  0  0  0
  5  6  2  0  0  0  0
  6  1  1  0  0  0  0
  8  7  1  0  0  0  0
  9  4  1  0  0  0  0
 10  9  2  0  0  0  0
 11 12  1  0  0  0  0
 11  9  1  0  0  0  0
 13 12  2  0  0  0  0
 14 13  1  0  0  0  0
 15 14  2  0  0  0  0
 15 16  1  0  0  0  0
 16 11  2  0  0  0  0
 17  5  1  0  0  0  0
 17 18  1  0  0  0  0
M  END
>  <MODEL>
8

>  <REMARK>
 VINA RESULT:      -4.1      2.066      3.060
  Name = ox1_orig_f12_ligand
  5 active torsions:
  status: ('A' for Active; 'I' for Inactive)
    1  A    between atoms: C_1  and  O_2
    2  A    between atoms: O_2  and  C_3
    3  A    between atoms: C_6  and  C_7
    4  A    between atoms: C_7  and  C_9
    5  A    between atoms: C_15  and  O_16
                            x       y       z     vdW  Elec       q    Type
                         _______ _______ _______ _____ _____    ______ ____

>  <TORSDO>
F 4

$$$$
ox1_orig_f12_ligand
 OpenBabel10092621193D

 18 19  0  0  0  0  0  0  0  0999 V2000
   -3.3680   -1.7960    0.0310 C   0  0  0  0  0  0  0  0  0  0  0  0
   -4.3310   -2.8000    0.0430 C   0  0  0  0  0  3  0  0  0  0  0  0
   -4.2480   -3.8260    0.9740 C   0  0  0  0  0  3  0  0  0  0  0  0
   -3.2020   -3.8680    1.8920 C   0  0  0  0  0  0  0  0  0  0  0  0
   -2.2460   -2.8570    1.8790 C   0  0  0  0  0  0  0  0  0  0  0  0
   -2.3370   -1.8290    0.9540 C   0  0  0  0  0  3  0  0  0  0  0  0
   -2.5190    0.2200   -0.9680 C   0  0  0  0  0  1  0  0  0  0  0  0
   -3.4850   -0.8050   -0.9060 O   0  0  0  0  0  0  0  0  0  0  0  0
   -3.0930   -4.9680    2.9130 C   0  0  0  0  0  0  0  0  0  0  0  0
   -2.2410   -5.8160    2.7470 O   0  0  0  0  0  0  0  0  0  0  0  0
   -3.9480   -5.0410    4.1200 C   0  0  0  0  0  0  0  0  0  0  0  0
   -4.3390   -3.9000    4.8080 C   0  0  0  0  0  3  0  0  0  0  0  0
   -5.1280   -3.9930    5.9330 C   0  0  0  0  0  3  0  0  0  0  0  0
   -5.5440   -5.2340    6.3890 C   0  0  0  0  0  3  0  0  0  0  0  0
   -5.1780   -6.3840    5.7010 C   0  0  0  0  0  3  0  0  0  0  0  0
   -4.3960   -6.2970    4.5520 C   0  0  0  0  0  3  0  0  0  0  0  0
   -1.2360   -2.8960    2.7840 O   0  0  0  0  0  0  0  0  0  0  0  0
   -0.8560   -3.7650    3.0640 H   0  0  0  0  0  0  0  0  0  0  0  0
  1  2  2  0  0  0  0
  1  6  1  0  0  0  0
  2  3  1  0  0  0  0
  3  4  2  0  0  0  0
  4  9  1  0  0  0  0
  5  4  1  0  0  0  0
  5 17  1  0  0  0  0
  6  5  2  0  0  0  0
  7  8  1  0  0  0  0
  8  1  1  0  0  0  0
  9 11  1  0  0  0  0
 10  9  2  0  0  0  0
 11 16  2  0  0  0  0
 11 12  1  0  0  0  0
 12 13  2  0  0  0  0
 13 14  1  0  0  0  0
 15 14  2  0  0  0  0
 16 15  1  0  0  0  0
 17 18  1  0  0  0  0
M  END
>  <MODEL>
9

>  <REMARK>
 VINA RESULT:      -4.0      2.583      5.761
  Name = ox1_orig_f12_ligand
  5 active torsions:
  status: ('A' for Active; 'I' for Inactive)
    1  A    between atoms: C_1  and  O_2
    2  A    between atoms: O_2  and  C_3
    3  A    between atoms: C_6  and  C_7
    4  A    between atoms: C_7  and  C_9
    5  A    between atoms: C_15  and  O_16
                            x       y       z     vdW  Elec       q    Type
                         _______ _______ _______ _____ _____    ______ ____

>  <TORSDO>
F 4

$$$$
