ox1_orig_f12_ligand
     RDKit          3D

 29 30  0  0  0  0  0  0  0  0999 V2000
   -1.4282    2.8658    3.0193 C   0  0  0  0  0  0  0  0  0  0  0  0
   -2.6183    2.3958    2.4290 O   0  0  0  0  0  0  0  0  0  0  0  0
   -2.7770    1.0574    2.1872 C   0  0  0  0  0  0  0  0  0  0  0  0
   -3.9940    0.6265    1.6699 C   0  0  0  0  0  0  0  0  0  0  0  0
   -4.1959   -0.7213    1.4072 C   0  0  0  0  0  0  0  0  0  0  0  0
   -3.1859   -1.6493    1.6457 C   0  0  0  0  0  0  0  0  0  0  0  0
   -3.3834   -3.1163    1.3716 C   0  0  0  0  0  0  0  0  0  0  0  0
   -2.5096   -3.8825    1.7211 O   0  0  0  0  0  0  0  0  0  0  0  0
   -4.6029   -3.6649    0.7351 C   0  0  0  0  0  0  0  0  0  0  0  0
   -5.1844   -3.0595   -0.3716 C   0  0  0  0  0  0  0  0  0  0  0  0
   -6.3222   -3.5840   -0.9415 C   0  0  0  0  0  0  0  0  0  0  0  0
   -6.9001   -4.7282   -0.4146 C   0  0  0  0  0  0  0  0  0  0  0  0
   -6.3211   -5.3561    0.6797 C   0  0  0  0  0  0  0  0  0  0  0  0
   -5.1590   -4.8437    1.2508 C   0  0  0  0  0  0  0  0  0  0  0  0
   -1.9736   -1.2128    2.1691 C   0  0  0  0  0  0  0  0  0  0  0  0
   -0.9976   -2.1231    2.4125 O   0  0  0  0  0  0  0  0  0  0  0  0
   -1.7790    0.1321    2.4393 C   0  0  0  0  0  0  0  0  0  0  0  0
   -0.5925    2.7313    2.3168 H   0  0  0  0  0  0  0  0  0  0  0  0
   -1.5356    3.9335    3.2611 H   0  0  0  0  0  0  0  0  0  0  0  0
   -1.2273    2.2995    3.9407 H   0  0  0  0  0  0  0  0  0  0  0  0
   -4.7954    1.3528    1.4694 H   0  0  0  0  0  0  0  0  0  0  0  0
   -5.1631   -1.0593    1.0068 H   0  0  0  0  0  0  0  0  0  0  0  0
   -4.7311   -2.1517   -0.7966 H   0  0  0  0  0  0  0  0  0  0  0  0
   -6.7737   -3.0943   -1.8169 H   0  0  0  0  0  0  0  0  0  0  0  0
   -7.8170   -5.1383   -0.8631 H   0  0  0  0  0  0  0  0  0  0  0  0
   -6.7824   -6.2630    1.0976 H   0  0  0  0  0  0  0  0  0  0  0  0
   -4.6825   -5.3588    2.0980 H   0  0  0  0  0  0  0  0  0  0  0  0
   -0.1286   -1.8295    2.7850 H   0  0  0  0  0  0  0  0  0  0  0  0
   -0.8196    0.4686    2.8595 H   0  0  0  0  0  0  0  0  0  0  0  0
  2  1  1  0
  3  2  1  0
  4  3  1  0
  5  4  2  0
  6  5  1  0
  7  6  1  0
  8  7  2  0
  9  7  1  0
 10  9  2  0
 11 10  1  0
 12 11  2  0
 13 12  1  0
 14 13  2  0
 14  9  1  0
 15  6  2  0
 16 15  1  0
 17 15  1  0
 17  3  2  0
  1 18  1  0
  1 19  1  0
  1 20  1  0
  4 21  1  0
  5 22  1  0
 10 23  1  0
 11 24  1  0
 12 25  1  0
 13 26  1  0
 14 27  1  0
 16 28  1  0
 17 29  1  0
M  END
$$$$
