ox1_orig_f12_ligand
 OpenBabel10092621193D

 18 19  0  0  0  0  0  0  0  0999 V2000
    4.8790   -9.0980   -2.1560 C   0  0  0  0  0  0  0  0  0  0  0  0
    6.0550   -9.6640   -1.6780 C   0  0  0  0  0  3  0  0  0  0  0  0
    6.0370  -10.4170   -0.5130 C   0  0  0  0  0  3  0  0  0  0  0  0
    4.8510  -10.6040    0.1920 C   0  0  0  0  0  0  0  0  0  0  0  0
    3.6770  -10.0410   -0.2950 C   0  0  0  0  0  0  0  0  0  0  0  0
    3.6970   -9.2970   -1.4640 C   0  0  0  0  0  3  0  0  0  0  0  0
    4.8420   -8.9990   -4.5590 C   0  0  0  0  0  1  0  0  0  0  0  0
    4.9410   -8.3590   -3.3080 O   0  0  0  0  0  0  0  0  0  0  0  0
    4.8060  -11.4200    1.4560 C   0  0  0  0  0  0  0  0  0  0  0  0
    4.2070  -12.4740    1.4320 O   0  0  0  0  0  0  0  0  0  0  0  0
    5.4890  -11.0150    2.7070 C   0  0  0  0  0  0  0  0  0  0  0  0
    5.6500   -9.6780    3.0500 C   0  0  0  0  0  3  0  0  0  0  0  0
    6.2950   -9.3260    4.2150 C   0  0  0  0  0  3  0  0  0  0  0  0
    6.7890  -10.3070    5.0600 C   0  0  0  0  0  3  0  0  0  0  0  0
    6.6200  -11.6470    4.7400 C   0  0  0  0  0  3  0  0  0  0  0  0
    5.9520  -12.0130    3.5750 C   0  0  0  0  0  3  0  0  0  0  0  0
    2.5220  -10.2380    0.3880 O   0  0  0  0  0  0  0  0  0  0  0  0
    2.0220  -11.0860    0.2820 H   0  0  0  0  0  0  0  0  0  0  0  0
  1  2  2  0  0  0  0
  1  6  1  0  0  0  0
  2  3  1  0  0  0  0
  3  4  2  0  0  0  0
  4  9  1  0  0  0  0
  5  4  1  0  0  0  0
  5 17  1  0  0  0  0
  6  5  2  0  0  0  0
  7  8  1  0  0  0  0
  8  1  1  0  0  0  0
  9 11  1  0  0  0  0
 10  9  2  0  0  0  0
 11 12  2  0  0  0  0
 11 16  1  0  0  0  0
 12 13  1  0  0  0  0
 13 14  2  0  0  0  0
 15 14  1  0  0  0  0
 16 15  2  0  0  0  0
 18 17  1  0  0  0  0
M  END
>  <MODEL>
1

>  <REMARK>
 VINA RESULT:      -4.3      0.000      0.000
  Name = ox1_orig_f12_ligand
  5 active torsions:
  status: ('A' for Active; 'I' for Inactive)
    1  A    between atoms: C_1  and  O_2
    2  A    between atoms: O_2  and  C_3
    3  A    between atoms: C_6  and  C_7
    4  A    between atoms: C_7  and  C_9
    5  A    between atoms: C_15  and  O_16
                            x       y       z     vdW  Elec       q    Type
                         _______ _______ _______ _____ _____    ______ ____

>  <TORSDO>
F 4

$$$$
ox1_orig_f12_ligand
 OpenBabel10092621193D

 18 19  0  0  0  0  0  0  0  0999 V2000
    1.5560   -3.2750    8.1460 C   0  0  0  0  0  0  0  0  0  0  0  0
    2.2590   -4.3010    7.5240 C   0  0  0  0  0  3  0  0  0  0  0  0
    1.6330   -5.5120    7.2670 C   0  0  0  0  0  3  0  0  0  0  0  0
    0.3060   -5.7160    7.6340 C   0  0  0  0  0  0  0  0  0  0  0  0
   -0.3940   -4.6840    8.2490 C   0  0  0  0  0  0  0  0  0  0  0  0
    0.2320   -3.4730    8.4970 C   0  0  0  0  0  3  0  0  0  0  0  0
    2.4010   -1.6550    9.7100 C   0  0  0  0  0  1  0  0  0  0  0  0
    2.2130   -2.0970    8.3850 O   0  0  0  0  0  0  0  0  0  0  0  0
   -0.3960   -7.0190    7.3610 C   0  0  0  0  0  0  0  0  0  0  0  0
   -1.2740   -7.0280    6.5250 O   0  0  0  0  0  0  0  0  0  0  0  0
   -0.0380   -8.2890    8.0350 C   0  0  0  0  0  0  0  0  0  0  0  0
   -0.2830   -9.5230    7.4450 C   0  0  0  0  0  3  0  0  0  0  0  0
    0.0520  -10.6900    8.0950 C   0  0  0  0  0  3  0  0  0  0  0  0
    0.6410  -10.6440    9.3490 C   0  0  0  0  0  3  0  0  0  0  0  0
    0.9100   -9.4180    9.9440 C   0  0  0  0  0  3  0  0  0  0  0  0
    0.5920   -8.2320    9.2860 C   0  0  0  0  0  3  0  0  0  0  0  0
   -1.6910   -4.8830    8.5920 O   0  0  0  0  0  0  0  0  0  0  0  0
   -2.2440   -5.5300    8.0860 H   0  0  0  0  0  0  0  0  0  0  0  0
  1  8  1  0  0  0  0
  1  6  1  0  0  0  0
  2  1  2  0  0  0  0
  3  2  1  0  0  0  0
  3  4  2  0  0  0  0
  4  5  1  0  0  0  0
  5  6  2  0  0  0  0
  5 17  1  0  0  0  0
  8  7  1  0  0  0  0
  9  4  1  0  0  0  0
  9 11  1  0  0  0  0
 10  9  2  0  0  0  0
 11 16  1  0  0  0  0
 12 11  2  0  0  0  0
 12 13  1  0  0  0  0
 13 14  2  0  0  0  0
 14 15  1  0  0  0  0
 16 15  2  0  0  0  0
 18 17  1  0  0  0  0
M  END
>  <MODEL>
2

>  <REMARK>
 VINA RESULT:      -4.2      9.133     10.424
  Name = ox1_orig_f12_ligand
  5 active torsions:
  status: ('A' for Active; 'I' for Inactive)
    1  A    between atoms: C_1  and  O_2
    2  A    between atoms: O_2  and  C_3
    3  A    between atoms: C_6  and  C_7
    4  A    between atoms: C_7  and  C_9
    5  A    between atoms: C_15  and  O_16
                            x       y       z     vdW  Elec       q    Type
                         _______ _______ _______ _____ _____    ______ ____

>  <TORSDO>
F 4

$$$$
ox1_orig_f12_ligand
 OpenBabel10092621193D

 18 19  0  0  0  0  0  0  0  0999 V2000
    0.6140  -10.5240    9.1160 C   0  0  0  0  0  0  0  0  0  0  0  0
    0.9290   -9.3780    9.8390 C   0  0  0  0  0  3  0  0  0  0  0  0
    0.5530   -8.1320    9.3590 C   0  0  0  0  0  3  0  0  0  0  0  0
   -0.1300   -8.0140    8.1520 C   0  0  0  0  0  0  0  0  0  0  0  0
   -0.4480   -9.1630    7.4370 C   0  0  0  0  0  0  0  0  0  0  0  0
   -0.0790  -10.4070    7.9240 C   0  0  0  0  0  3  0  0  0  0  0  0
    2.0580  -11.7940   10.5610 C   0  0  0  0  0  1  0  0  0  0  0  0
    1.0070  -11.7340    9.6230 O   0  0  0  0  0  0  0  0  0  0  0  0
   -0.5520   -6.6730    7.6140 C   0  0  0  0  0  0  0  0  0  0  0  0
   -1.6810   -6.5620    7.1840 O   0  0  0  0  0  0  0  0  0  0  0  0
    0.3310   -5.4830    7.6200 C   0  0  0  0  0  0  0  0  0  0  0  0
    1.6060   -5.5170    7.0700 C   0  0  0  0  0  3  0  0  0  0  0  0
    2.4110   -4.4000    7.0940 C   0  0  0  0  0  3  0  0  0  0  0  0
    1.9530   -3.2250    7.6690 C   0  0  0  0  0  3  0  0  0  0  0  0
    0.6730   -3.1690    8.2070 C   0  0  0  0  0  3  0  0  0  0  0  0
   -0.1550   -4.2880    8.1690 C   0  0  0  0  0  3  0  0  0  0  0  0
   -1.1260   -9.0430    6.2680 O   0  0  0  0  0  0  0  0  0  0  0  0
   -1.7860   -8.3150    6.1510 H   0  0  0  0  0  0  0  0  0  0  0  0
  1  8  1  0  0  0  0
  1  2  1  0  0  0  0
  3  2  2  0  0  0  0
  4  3  1  0  0  0  0
  5  6  1  0  0  0  0
  5  4  2  0  0  0  0
  6  1  2  0  0  0  0
  8  7  1  0  0  0  0
  9 11  1  0  0  0  0
  9  4  1  0  0  0  0
 10  9  2  0  0  0  0
 11 16  1  0  0  0  0
 12 13  1  0  0  0  0
 12 11  2  0  0  0  0
 13 14  2  0  0  0  0
 14 15  1  0  0  0  0
 16 15  2  0  0  0  0
 17  5  1  0  0  0  0
 18 17  1  0  0  0  0
M  END
>  <MODEL>
3

>  <REMARK>
 VINA RESULT:      -3.9      8.947     10.547
  Name = ox1_orig_f12_ligand
  5 active torsions:
  status: ('A' for Active; 'I' for Inactive)
    1  A    between atoms: C_1  and  O_2
    2  A    between atoms: O_2  and  C_3
    3  A    between atoms: C_6  and  C_7
    4  A    between atoms: C_7  and  C_9
    5  A    between atoms: C_15  and  O_16
                            x       y       z     vdW  Elec       q    Type
                         _______ _______ _______ _____ _____    ______ ____

>  <TORSDO>
F 4

$$$$
ox1_orig_f12_ligand
 OpenBabel10092621193D

 18 19  0  0  0  0  0  0  0  0999 V2000
   -0.0940   -1.4060    8.8020 C   0  0  0  0  0  0  0  0  0  0  0  0
    1.2620   -1.3320    9.1020 C   0  0  0  0  0  3  0  0  0  0  0  0
    2.1100   -2.3670    8.7350 C   0  0  0  0  0  3  0  0  0  0  0  0
    1.6140   -3.4890    8.0760 C   0  0  0  0  0  0  0  0  0  0  0  0
    0.2590   -3.5550    7.7730 C   0  0  0  0  0  0  0  0  0  0  0  0
   -0.5830   -2.5150    8.1330 C   0  0  0  0  0  3  0  0  0  0  0  0
   -0.5720    0.9510    8.7970 C   0  0  0  0  0  1  0  0  0  0  0  0
   -0.8960   -0.3640    9.1850 O   0  0  0  0  0  0  0  0  0  0  0  0
    2.5150   -4.6230    7.6650 C   0  0  0  0  0  0  0  0  0  0  0  0
    2.7410   -4.7690    6.4820 O   0  0  0  0  0  0  0  0  0  0  0  0
    3.1620   -5.5370    8.6350 C   0  0  0  0  0  0  0  0  0  0  0  0
    4.5420   -5.6900    8.6850 C   0  0  0  0  0  3  0  0  0  0  0  0
    5.1200   -6.5510    9.5900 C   0  0  0  0  0  3  0  0  0  0  0  0
    4.3270   -7.2750   10.4660 C   0  0  0  0  0  3  0  0  0  0  0  0
    2.9470   -7.1200   10.4410 C   0  0  0  0  0  3  0  0  0  0  0  0
    2.3550   -6.2370    9.5430 C   0  0  0  0  0  3  0  0  0  0  0  0
   -0.2160   -4.6440    7.1190 O   0  0  0  0  0  0  0  0  0  0  0  0
   -0.8490   -5.2560    7.5720 H   0  0  0  0  0  0  0  0  0  0  0  0
  1  2  1  0  0  0  0
  1  8  1  0  0  0  0
  3  2  2  0  0  0  0
  4  3  1  0  0  0  0
  5  4  2  0  0  0  0
  5  6  1  0  0  0  0
  6  1  2  0  0  0  0
  7  8  1  0  0  0  0
  9  4  1  0  0  0  0
  9 11  1  0  0  0  0
 10  9  2  0  0  0  0
 11 12  2  0  0  0  0
 11 16  1  0  0  0  0
 12 13  1  0  0  0  0
 13 14  2  0  0  0  0
 15 14  1  0  0  0  0
 16 15  2  0  0  0  0
 17 18  1  0  0  0  0
 17  5  1  0  0  0  0
M  END
>  <MODEL>
4

>  <REMARK>
 VINA RESULT:      -3.7      9.350     11.243
  Name = ox1_orig_f12_ligand
  5 active torsions:
  status: ('A' for Active; 'I' for Inactive)
    1  A    between atoms: C_1  and  O_2
    2  A    between atoms: O_2  and  C_3
    3  A    between atoms: C_6  and  C_7
    4  A    between atoms: C_7  and  C_9
    5  A    between atoms: C_15  and  O_16
                            x       y       z     vdW  Elec       q    Type
                         _______ _______ _______ _____ _____    ______ ____

>  <TORSDO>
F 4

$$$$
ox1_orig_f12_ligand
 OpenBabel10092621193D

 18 19  0  0  0  0  0  0  0  0999 V2000
   -2.2180    4.8040    3.8220 C   0  0  0  0  0  0  0  0  0  0  0  0
   -2.5650    6.1060    3.4770 C   0  0  0  0  0  3  0  0  0  0  0  0
   -2.9990    6.3880    2.1900 C   0  0  0  0  0  3  0  0  0  0  0  0
   -3.0800    5.3810    1.2330 C   0  0  0  0  0  0  0  0  0  0  0  0
   -2.7380    4.0810    1.5850 C   0  0  0  0  0  0  0  0  0  0  0  0
   -2.3150    3.8000    2.8750 C   0  0  0  0  0  3  0  0  0  0  0  0
   -0.5700    5.1110    5.5470 C   0  0  0  0  0  1  0  0  0  0  0  0
   -1.7920    4.5690    5.1030 O   0  0  0  0  0  0  0  0  0  0  0  0
   -3.5510    5.6630   -0.1690 C   0  0  0  0  0  0  0  0  0  0  0  0
   -4.3840    4.9240   -0.6490 O   0  0  0  0  0  0  0  0  0  0  0  0
   -3.0730    6.8150   -0.9680 C   0  0  0  0  0  0  0  0  0  0  0  0
   -1.7220    7.0190   -1.2210 C   0  0  0  0  0  3  0  0  0  0  0  0
   -1.3020    8.1020   -1.9600 C   0  0  0  0  0  3  0  0  0  0  0  0
   -2.2280    9.0020   -2.4630 C   0  0  0  0  0  3  0  0  0  0  0  0
   -3.5830    8.8030   -2.2350 C   0  0  0  0  0  3  0  0  0  0  0  0
   -4.0190    7.7000   -1.5050 C   0  0  0  0  0  3  0  0  0  0  0  0
   -2.8320    3.1000    0.6530 O   0  0  0  0  0  0  0  0  0  0  0  0
   -3.0390    3.3300   -0.2880 H   0  0  0  0  0  0  0  0  0  0  0  0
  1  8  1  0  0  0  0
  2  1  1  0  0  0  0
  3  2  2  0  0  0  0
  4  5  2  0  0  0  0
  4  3  1  0  0  0  0
  5  6  1  0  0  0  0
  6  1  2  0  0  0  0
  8  7  1  0  0  0  0
  9  4  1  0  0  0  0
 10  9  2  0  0  0  0
 11  9  1  0  0  0  0
 12 11  1  0  0  0  0
 13 12  2  0  0  0  0
 14 15  2  0  0  0  0
 14 13  1  0  0  0  0
 15 16  1  0  0  0  0
 16 11  2  0  0  0  0
 17  5  1  0  0  0  0
 18 17  1  0  0  0  0
M  END
>  <MODEL>
5

>  <REMARK>
 VINA RESULT:      -3.6     16.967     18.954
  Name = ox1_orig_f12_ligand
  5 active torsions:
  status: ('A' for Active; 'I' for Inactive)
    1  A    between atoms: C_1  and  O_2
    2  A    between atoms: O_2  and  C_3
    3  A    between atoms: C_6  and  C_7
    4  A    between atoms: C_7  and  C_9
    5  A    between atoms: C_15  and  O_16
                            x       y       z     vdW  Elec       q    Type
                         _______ _______ _______ _____ _____    ______ ____

>  <TORSDO>
F 4

$$$$
ox1_orig_f12_ligand
 OpenBabel10092621193D

 18 19  0  0  0  0  0  0  0  0999 V2000
    0.7510   -2.8600    8.7080 C   0  0  0  0  0  0  0  0  0  0  0  0
   -0.4050   -3.4470    9.2100 C   0  0  0  0  0  3  0  0  0  0  0  0
   -0.7530   -4.7330    8.8220 C   0  0  0  0  0  3  0  0  0  0  0  0
    0.0410   -5.4410    7.9240 C   0  0  0  0  0  0  0  0  0  0  0  0
    1.1990   -4.8520    7.4310 C   0  0  0  0  0  0  0  0  0  0  0  0
    1.5480   -3.5710    7.8280 C   0  0  0  0  0  3  0  0  0  0  0  0
    2.3690   -1.2760    9.5190 C   0  0  0  0  0  1  0  0  0  0  0  0
    1.0560   -1.5880    9.1140 O   0  0  0  0  0  0  0  0  0  0  0  0
   -0.3140   -6.8390    7.4920 C   0  0  0  0  0  0  0  0  0  0  0  0
   -0.9420   -6.9730    6.4620 O   0  0  0  0  0  0  0  0  0  0  0  0
    0.0980   -8.0490    8.2400 C   0  0  0  0  0  0  0  0  0  0  0  0
    0.7440   -7.9630    9.4680 C   0  0  0  0  0  3  0  0  0  0  0  0
    1.1240   -9.1020   10.1410 C   0  0  0  0  0  3  0  0  0  0  0  0
    0.8640  -10.3500    9.5990 C   0  0  0  0  0  3  0  0  0  0  0  0
    0.2040  -10.4540    8.3820 C   0  0  0  0  0  3  0  0  0  0  0  0
   -0.2030   -9.3080    7.7030 C   0  0  0  0  0  3  0  0  0  0  0  0
    1.9770   -5.5520    6.5680 O   0  0  0  0  0  0  0  0  0  0  0  0
    1.9200   -5.3740    5.5960 H   0  0  0  0  0  0  0  0  0  0  0  0
  1  8  1  0  0  0  0
  1  2  1  0  0  0  0
  3  2  2  0  0  0  0
  4  3  1  0  0  0  0
  5  6  1  0  0  0  0
  5  4  2  0  0  0  0
  6  1  2  0  0  0  0
  8  7  1  0  0  0  0
  9  4  1  0  0  0  0
  9 11  1  0  0  0  0
 10  9  2  0  0  0  0
 11 12  1  0  0  0  0
 12 13  2  0  0  0  0
 14 13  1  0  0  0  0
 15 14  2  0  0  0  0
 16 11  2  0  0  0  0
 16 15  1  0  0  0  0
 17  5  1  0  0  0  0
 18 17  1  0  0  0  0
M  END
>  <MODEL>
6

>  <REMARK>
 VINA RESULT:      -3.6      9.254     10.689
  Name = ox1_orig_f12_ligand
  5 active torsions:
  status: ('A' for Active; 'I' for Inactive)
    1  A    between atoms: C_1  and  O_2
    2  A    between atoms: O_2  and  C_3
    3  A    between atoms: C_6  and  C_7
    4  A    between atoms: C_7  and  C_9
    5  A    between atoms: C_15  and  O_16
                            x       y       z     vdW  Elec       q    Type
                         _______ _______ _______ _____ _____    ______ ____

>  <TORSDO>
F 4

$$$$
ox1_orig_f12_ligand
 OpenBabel10092621193D

 18 19  0  0  0  0  0  0  0  0999 V2000
   -0.3610   -4.2860    7.9500 C   0  0  0  0  0  0  0  0  0  0  0  0
    0.7590   -4.9670    7.4840 C   0  0  0  0  0  3  0  0  0  0  0  0
    0.7050   -6.3400    7.2970 C   0  0  0  0  0  3  0  0  0  0  0  0
   -0.4590   -7.0490    7.5800 C   0  0  0  0  0  0  0  0  0  0  0  0
   -1.5770   -6.3620    8.0380 C   0  0  0  0  0  0  0  0  0  0  0  0
   -1.5220   -4.9890    8.2160 C   0  0  0  0  0  3  0  0  0  0  0  0
   -1.4210   -2.1290    8.0540 C   0  0  0  0  0  1  0  0  0  0  0  0
   -0.2640   -2.9310    8.1240 O   0  0  0  0  0  0  0  0  0  0  0  0
   -0.5420   -8.5390    7.3810 C   0  0  0  0  0  0  0  0  0  0  0  0
   -1.1170   -8.9500    6.3950 O   0  0  0  0  0  0  0  0  0  0  0  0
    0.0750   -9.5170    8.3070 C   0  0  0  0  0  0  0  0  0  0  0  0
    0.6790   -9.1170    9.4930 C   0  0  0  0  0  3  0  0  0  0  0  0
    1.2520  -10.0440   10.3350 C   0  0  0  0  0  3  0  0  0  0  0  0
    1.2320  -11.3900   10.0050 C   0  0  0  0  0  3  0  0  0  0  0  0
    0.6160  -11.8070    8.8320 C   0  0  0  0  0  3  0  0  0  0  0  0
    0.0160  -10.8800    7.9850 C   0  0  0  0  0  3  0  0  0  0  0  0
   -2.7130   -7.0560    8.3000 O   0  0  0  0  0  0  0  0  0  0  0  0
   -3.5850   -6.7170    7.9760 H   0  0  0  0  0  0  0  0  0  0  0  0
  1  8  1  0  0  0  0
  1  6  1  0  0  0  0
  2  1  2  0  0  0  0
  3  2  1  0  0  0  0
  3  4  2  0  0  0  0
  4  5  1  0  0  0  0
  5  6  2  0  0  0  0
  5 17  1  0  0  0  0
  7  8  1  0  0  0  0
  9  4  1  0  0  0  0
  9 11  1  0  0  0  0
 10  9  2  0  0  0  0
 11 12  1  0  0  0  0
 12 13  2  0  0  0  0
 14 13  1  0  0  0  0
 15 14  2  0  0  0  0
 16 11  2  0  0  0  0
 16 15  1  0  0  0  0
 18 17  1  0  0  0  0
M  END
>  <MODEL>
7

>  <REMARK>
 VINA RESULT:      -3.6      9.078     10.195
  Name = ox1_orig_f12_ligand
  5 active torsions:
  status: ('A' for Active; 'I' for Inactive)
    1  A    between atoms: C_1  and  O_2
    2  A    between atoms: O_2  and  C_3
    3  A    between atoms: C_6  and  C_7
    4  A    between atoms: C_7  and  C_9
    5  A    between atoms: C_15  and  O_16
                            x       y       z     vdW  Elec       q    Type
                         _______ _______ _______ _____ _____    ______ ____

>  <TORSDO>
F 4

$$$$
ox1_orig_f12_ligand
 OpenBabel10092621193D

 18 19  0  0  0  0  0  0  0  0999 V2000
    0.1250  -10.8030    8.1470 C   0  0  0  0  0  0  0  0  0  0  0  0
   -0.4510   -9.8500    7.3140 C   0  0  0  0  0  3  0  0  0  0  0  0
   -0.4030   -8.5080    7.6600 C   0  0  0  0  0  3  0  0  0  0  0  0
    0.2100   -8.1020    8.8430 C   0  0  0  0  0  0  0  0  0  0  0  0
    0.7900   -9.0590    9.6690 C   0  0  0  0  0  0  0  0  0  0  0  0
    0.7480  -10.3980    9.3150 C   0  0  0  0  0  3  0  0  0  0  0  0
   -1.1980  -12.7650    7.7190 C   0  0  0  0  0  1  0  0  0  0  0  0
    0.0530  -12.1180    7.7700 O   0  0  0  0  0  0  0  0  0  0  0  0
    0.2780   -6.6510    9.2380 C   0  0  0  0  0  0  0  0  0  0  0  0
   -0.1060   -6.3450   10.3470 O   0  0  0  0  0  0  0  0  0  0  0  0
    0.8230   -5.5950    8.3540 C   0  0  0  0  0  0  0  0  0  0  0  0
    0.0490   -4.5180    7.9400 C   0  0  0  0  0  3  0  0  0  0  0  0
    0.5760   -3.5530    7.1110 C   0  0  0  0  0  3  0  0  0  0  0  0
    1.8910   -3.6470    6.6830 C   0  0  0  0  0  3  0  0  0  0  0  0
    2.6830   -4.7070    7.1030 C   0  0  0  0  0  3  0  0  0  0  0  0
    2.1650   -5.6770    7.9560 C   0  0  0  0  0  3  0  0  0  0  0  0
    1.3970   -8.6570   10.8130 O   0  0  0  0  0  0  0  0  0  0  0  0
    1.9780   -7.8550   10.8100 H   0  0  0  0  0  0  0  0  0  0  0  0
  1  6  1  0  0  0  0
  2  3  1  0  0  0  0
  2  1  2  0  0  0  0
  3  4  2  0  0  0  0
  4  9  1  0  0  0  0
  4  5  1  0  0  0  0
  5 17  1  0  0  0  0
  6  5  2  0  0  0  0
  7  8  1  0  0  0  0
  8  1  1  0  0  0  0
  9 10  2  0  0  0  0
 11  9  1  0  0  0  0
 12 11  2  0  0  0  0
 13 12  1  0  0  0  0
 14 15  1  0  0  0  0
 14 13  2  0  0  0  0
 15 16  2  0  0  0  0
 16 11  1  0  0  0  0
 18 17  1  0  0  0  0
M  END
>  <MODEL>
8

>  <REMARK>
 VINA RESULT:      -3.5      9.049     10.492
  Name = ox1_orig_f12_ligand
  5 active torsions:
  status: ('A' for Active; 'I' for Inactive)
    1  A    between atoms: C_1  and  O_2
    2  A    between atoms: O_2  and  C_3
    3  A    between atoms: C_6  and  C_7
    4  A    between atoms: C_7  and  C_9
    5  A    between atoms: C_15  and  O_16
                            x       y       z     vdW  Elec       q    Type
                         _______ _______ _______ _____ _____    ______ ____

>  <TORSDO>
F 4

$$$$
ox1_orig_f12_ligand
 OpenBabel10092621193D

 18 19  0  0  0  0  0  0  0  0999 V2000
    0.9850   -8.2250    9.7200 C   0  0  0  0  0  0  0  0  0  0  0  0
    2.0110   -7.3810   10.1290 C   0  0  0  0  0  3  0  0  0  0  0  0
    2.2360   -6.1880    9.4580 C   0  0  0  0  0  3  0  0  0  0  0  0
    1.4490   -5.8300    8.3670 C   0  0  0  0  0  0  0  0  0  0  0  0
    0.4200   -6.6750    7.9660 C   0  0  0  0  0  0  0  0  0  0  0  0
    0.1930   -7.8610    8.6450 C   0  0  0  0  0  3  0  0  0  0  0  0
    0.7470  -10.6190    9.7110 C   0  0  0  0  0  1  0  0  0  0  0  0
    0.7990   -9.3950   10.4080 O   0  0  0  0  0  0  0  0  0  0  0  0
    1.6720   -4.5390    7.6250 C   0  0  0  0  0  0  0  0  0  0  0  0
    2.2160   -4.5920    6.5430 O   0  0  0  0  0  0  0  0  0  0  0  0
    1.2240   -3.2230    8.1360 C   0  0  0  0  0  0  0  0  0  0  0  0
    2.1150   -2.3160    8.6960 C   0  0  0  0  0  3  0  0  0  0  0  0
    1.6740   -1.1010    9.1710 C   0  0  0  0  0  3  0  0  0  0  0  0
    0.3300   -0.7700    9.0930 C   0  0  0  0  0  3  0  0  0  0  0  0
   -0.5700   -1.6580    8.5200 C   0  0  0  0  0  3  0  0  0  0  0  0
   -0.1310   -2.8800    8.0180 C   0  0  0  0  0  3  0  0  0  0  0  0
   -0.3530   -6.3140    6.9110 O   0  0  0  0  0  0  0  0  0  0  0  0
   -0.6900   -7.0040    6.2860 H   0  0  0  0  0  0  0  0  0  0  0  0
  1  2  1  0  0  0  0
  1  8  1  0  0  0  0
  3  2  2  0  0  0  0
  4  3  1  0  0  0  0
  5  4  2  0  0  0  0
  5  6  1  0  0  0  0
  6  1  2  0  0  0  0
  7  8  1  0  0  0  0
  9 11  1  0  0  0  0
  9  4  1  0  0  0  0
 10  9  2  0  0  0  0
 11 12  1  0  0  0  0
 12 13  2  0  0  0  0
 14 13  1  0  0  0  0
 15 14  2  0  0  0  0
 16 11  2  0  0  0  0
 16 15  1  0  0  0  0
 17  5  1  0  0  0  0
 18 17  1  0  0  0  0
M  END
>  <MODEL>
9

>  <REMARK>
 VINA RESULT:      -3.5      9.622     11.417
  Name = ox1_orig_f12_ligand
  5 active torsions:
  status: ('A' for Active; 'I' for Inactive)
    1  A    between atoms: C_1  and  O_2
    2  A    between atoms: O_2  and  C_3
    3  A    between atoms: C_6  and  C_7
    4  A    between atoms: C_7  and  C_9
    5  A    between atoms: C_15  and  O_16
                            x       y       z     vdW  Elec       q    Type
                         _______ _______ _______ _____ _____    ______ ____

>  <TORSDO>
F 4

$$$$
