ox2_orig_f8_ligand
     RDKit          3D

 17 18  0  0  0  0  0  0  0  0999 V2000
    1.6790   -5.2220   -3.3290 C   0  0  0  0  0  0  0  0  0  0  0  0
    2.3660   -5.8980   -2.2920 O   0  0  0  0  0  0  0  0  0  0  0  0
    1.5960   -6.1050   -1.1780 C   0  0  0  0  0  0  0  0  0  0  0  0
    1.4020   -7.3920   -0.7630 C   0  0  0  0  0  0  0  0  0  0  0  0
    0.6990   -7.6380    0.3850 C   0  0  0  0  0  0  0  0  0  0  0  0
    0.1750   -6.6090    1.1210 C   0  0  0  0  0  0  0  0  0  0  0  0
   -0.5280   -6.8750    2.3990 C   0  0  0  0  0  0  0  0  0  0  0  0
   -0.0510   -6.4500    3.4680 O   0  0  0  0  0  0  0  0  0  0  0  0
   -1.7990   -7.6460    2.4250 C   0  0  0  0  0  0  0  0  0  0  0  0
   -2.1100   -8.3760    3.5790 C   0  0  0  0  0  0  0  0  0  0  0  0
   -3.2990   -9.1050    3.6180 C   0  0  0  0  0  0  0  0  0  0  0  0
   -4.1860   -9.0590    2.5230 C   0  0  0  0  0  0  0  0  0  0  0  0
   -3.8650   -8.3090    1.4210 C   0  0  0  0  0  0  0  0  0  0  0  0
   -2.6810   -7.5850    1.3720 C   0  0  0  0  0  0  0  0  0  0  0  0
    0.3760   -5.2530    0.7210 C   0  0  0  0  0  0  0  0  0  0  0  0
   -0.1200   -4.2660    1.4590 O   0  0  0  0  0  0  0  0  0  0  0  0
    1.0840   -5.0320   -0.4540 C   0  0  0  0  0  0  0  0  0  0  0  0
  2  1  1  0
  3  2  1  0
  4  3  1  0
  5  4  2  0
  6  5  1  0
  7  6  1  0
  8  7  2  0
  9  7  1  0
 10  9  2  0
 11 10  1  0
 12 11  2  0
 13 12  1  0
 14 13  2  0
 14  9  1  0
 15  6  2  0
 16 15  1  0
 17 15  1  0
 17  3  2  0
M  END
