ox1_orig_f12_ligand
     RDKit          3D

 29 30  0  0  0  0  0  0  0  0999 V2000
    3.7990   -0.2240   -4.2950 C   0  0  0  0  0  0  0  0  0  0  0  0
    2.7160   -0.7910   -3.5940 O   0  0  0  0  0  0  0  0  0  0  0  0
    1.8810    0.0120   -2.8640 C   0  0  0  0  0  0  0  0  0  0  0  0
    0.7830   -0.5770   -2.2460 C   0  0  0  0  0  0  0  0  0  0  0  0
   -0.0870    0.2000   -1.4940 C   0  0  0  0  0  0  0  0  0  0  0  0
    0.1340    1.5660   -1.3410 C   0  0  0  0  0  0  0  0  0  0  0  0
   -0.7980    2.4290   -0.5330 C   0  0  0  0  0  0  0  0  0  0  0  0
   -0.6170    3.6290   -0.5470 O   0  0  0  0  0  0  0  0  0  0  0  0
   -1.9390    1.8870    0.2400 C   0  0  0  0  0  0  0  0  0  0  0  0
   -1.8150    0.7450    1.0210 C   0  0  0  0  0  0  0  0  0  0  0  0
   -2.8920    0.2560    1.7250 C   0  0  0  0  0  0  0  0  0  0  0  0
   -4.1160    0.9030    1.6620 C   0  0  0  0  0  0  0  0  0  0  0  0
   -4.2520    2.0560    0.9010 C   0  0  0  0  0  0  0  0  0  0  0  0
   -3.1630    2.5690    0.2010 C   0  0  0  0  0  0  0  0  0  0  0  0
    1.2300    2.1500   -1.9670 C   0  0  0  0  0  0  0  0  0  0  0  0
    1.4330    3.4840   -1.8260 O   0  0  0  0  0  0  0  0  0  0  0  0
    2.0910    1.3730   -2.7250 C   0  0  0  0  0  0  0  0  0  0  0  0
    4.5378    0.1628   -3.5777 H   0  0  0  0  0  0  0  0  0  0  0  0
    4.2689   -0.9918   -4.9272 H   0  0  0  0  0  0  0  0  0  0  0  0
    3.4357    0.5996   -4.9272 H   0  0  0  0  0  0  0  0  0  0  0  0
    0.6044   -1.6571   -2.3531 H   0  0  0  0  0  0  0  0  0  0  0  0
   -0.9594   -0.2679   -1.0143 H   0  0  0  0  0  0  0  0  0  0  0  0
   -0.8466    0.2263    1.0774 H   0  0  0  0  0  0  0  0  0  0  0  0
   -2.7810   -0.6501    2.3388 H   0  0  0  0  0  0  0  0  0  0  0  0
   -4.9790    0.5032    2.2146 H   0  0  0  0  0  0  0  0  0  0  0  0
   -5.2248    2.5669    0.8507 H   0  0  0  0  0  0  0  0  0  0  0  0
   -3.2623    3.4999   -0.3766 H   0  0  0  0  0  0  0  0  0  0  0  0
    2.2082    3.9158   -2.2649 H   0  0  0  0  0  0  0  0  0  0  0  0
    2.9520    1.8435   -3.2224 H   0  0  0  0  0  0  0  0  0  0  0  0
  2  1  1  0
  3  2  1  0
  4  3  1  0
  5  4  2  0
  6  5  1  0
  7  6  1  0
  8  7  2  0
  9  7  1  0
 10  9  2  0
 11 10  1  0
 12 11  2  0
 13 12  1  0
 14 13  2  0
 14  9  1  0
 15  6  2  0
 16 15  1  0
 17 15  1  0
 17  3  2  0
  1 18  1  0
  1 19  1  0
  1 20  1  0
  4 21  1  0
  5 22  1  0
 10 23  1  0
 11 24  1  0
 12 25  1  0
 13 26  1  0
 14 27  1  0
 16 28  1  0
 17 29  1  0
M  END
$$$$
