orig_f12_ligand
     RDKit          3D

 44 44  0  0  0  0  0  0  0  0999 V2000
   -5.2020    7.1310    5.7940 C   0  0  0  0  0  0  0  0  0  0  0  0
   -4.5810    8.0250    4.7480 C   0  0  0  0  0  0  0  0  0  0  0  0
   -3.5490    7.3000    3.9320 C   0  0  0  0  0  0  0  0  0  0  0  0
   -2.9210    8.1910    2.9110 C   0  0  0  0  0  0  0  0  0  0  0  0
   -1.8360    7.5210    2.0960 C   0  0  2  0  0  0  0  0  0  0  0  0
   -1.1360    8.5240    1.1920 C   0  0  0  0  0  0  0  0  0  0  0  0
   -1.5900    8.5110   -0.2560 C   0  0  0  0  0  0  0  0  0  0  0  0
   -2.4230    6.5090    1.3140 O   0  0  0  0  0  0  0  0  0  0  0  0
   -2.0110    5.2580    1.4620 C   0  0  0  0  0  0  0  0  0  0  0  0
   -1.3270    4.8960    2.3950 O   0  0  0  0  0  0  0  0  0  0  0  0
   -2.4290    4.3920    0.3520 C   0  0  0  0  0  0  0  0  0  0  0  0
   -1.7530    3.2620    0.1130 C   0  0  0  0  0  0  0  0  0  0  0  0
   -2.0350    2.4030   -1.0500 C   0  0  0  0  0  0  0  0  0  0  0  0
   -3.1230    2.6110   -1.8670 C   0  0  0  0  0  0  0  0  0  0  0  0
   -3.3370    1.8060   -2.9740 C   0  0  0  0  0  0  0  0  0  0  0  0
   -2.4680    0.7870   -3.2570 C   0  0  0  0  0  0  0  0  0  0  0  0
   -2.6190   -0.0270   -4.3430 O   0  0  0  0  0  0  0  0  0  0  0  0
   -3.8690   -0.0780   -5.0200 C   0  0  0  0  0  0  0  0  0  0  0  0
   -1.3710    0.5720   -2.4440 C   0  0  0  0  0  0  0  0  0  0  0  0
   -1.1660    1.3770   -1.3300 C   0  0  0  0  0  0  0  0  0  0  0  0
   -4.9429    7.5040    6.7958 H   0  0  0  0  0  0  0  0  0  0  0  0
   -6.2955    7.1312    5.6742 H   0  0  0  0  0  0  0  0  0  0  0  0
   -4.8202    6.1064    5.6742 H   0  0  0  0  0  0  0  0  0  0  0  0
   -5.3725    8.3902    4.0771 H   0  0  0  0  0  0  0  0  0  0  0  0
   -4.0828    8.8587    5.2645 H   0  0  0  0  0  0  0  0  0  0  0  0
   -2.7651    6.9217    4.6046 H   0  0  0  0  0  0  0  0  0  0  0  0
   -4.0495    6.4752    3.4036 H   0  0  0  0  0  0  0  0  0  0  0  0
   -3.7067    8.5372    2.2234 H   0  0  0  0  0  0  0  0  0  0  0  0
   -2.4444    9.0175    3.4586 H   0  0  0  0  0  0  0  0  0  0  0  0
   -1.0853    7.0942    2.7774 H   0  0  0  0  0  0  0  0  0  0  0  0
   -1.3157    9.5310    1.5966 H   0  0  0  0  0  0  0  0  0  0  0  0
   -0.0736    8.2392    1.1828 H   0  0  0  0  0  0  0  0  0  0  0  0
   -2.6888    8.4795   -0.2955 H   0  0  0  0  0  0  0  0  0  0  0  0
   -1.2308    9.4198   -0.7611 H   0  0  0  0  0  0  0  0  0  0  0  0
   -1.1794    7.6242   -0.7611 H   0  0  0  0  0  0  0  0  0  0  0  0
   -3.2884    4.6692   -0.2762 H   0  0  0  0  0  0  0  0  0  0  0  0
   -0.9570    2.9635    0.8111 H   0  0  0  0  0  0  0  0  0  0  0  0
   -3.8287    3.4234   -1.6390 H   0  0  0  0  0  0  0  0  0  0  0  0
   -4.2050    1.9857   -3.6254 H   0  0  0  0  0  0  0  0  0  0  0  0
   -4.6844   -0.1113   -4.2824 H   0  0  0  0  0  0  0  0  0  0  0  0
   -3.9812    0.8163   -5.6506 H   0  0  0  0  0  0  0  0  0  0  0  0
   -3.9080   -0.9785   -5.6506 H   0  0  0  0  0  0  0  0  0  0  0  0
   -0.6613   -0.2351   -2.6785 H   0  0  0  0  0  0  0  0  0  0  0  0
   -0.3053    1.1919   -0.6706 H   0  0  0  0  0  0  0  0  0  0  0  0
  2  1  1  0
  3  2  1  0
  4  3  1  0
  5  4  1  0
  6  5  1  0
  7  6  1  0
  8  5  1  0
  9  8  1  0
 10  9  2  0
 11  9  1  0
 12 11  2  3
 13 12  1  0
 14 13  1  0
 15 14  2  0
 16 15  1  0
 17 16  1  0
 18 17  1  0
 19 16  2  0
 20 19  1  0
 20 13  2  0
  1 21  1  0
  1 22  1  0
  1 23  1  0
  2 24  1  0
  2 25  1  0
  3 26  1  0
  3 27  1  0
  4 28  1  0
  4 29  1  0
  5 30  1  1
  6 31  1  0
  6 32  1  0
  7 33  1  0
  7 34  1  0
  7 35  1  0
 11 36  1  0
 12 37  1  0
 14 38  1  0
 15 39  1  0
 18 40  1  0
 18 41  1  0
 18 42  1  0
 19 43  1  0
 20 44  1  0
M  END
$$$$
