bgox31_5_ligand
 OpenBabel10092621253D

 18 19  0  0  0  0  0  0  0  0999 V2000
   -7.5300    9.6140    1.1660 C   0  0  0  0  0  0  0  0  0  0  0  0
   -6.8060   10.4780    0.4040 C   0  0  0  0  0  3  0  0  0  0  0  0
   -6.1700   10.0040   -0.7620 C   0  0  0  0  0  3  0  0  0  0  0  0
   -6.2330    8.6850   -1.1650 C   0  0  0  0  0  0  0  0  0  0  0  0
   -6.9630    7.7990   -0.3760 C   0  0  0  0  0  0  0  0  0  0  0  0
   -7.6120    8.2620    0.8010 C   0  0  0  0  0  3  0  0  0  0  0  0
   -7.2910   11.0720    3.2030 C   0  0  0  0  0  1  0  0  0  0  0  0
   -8.1070   10.2480    2.3230 O   0  0  0  0  0  0  0  0  0  0  0  0
   -5.5390    8.2650   -2.3570 C   0  0  0  0  0  0  0  0  0  0  0  0
   -6.2030    7.9600   -3.3560 O   0  0  0  0  0  0  0  0  0  0  0  0
   -4.0510    8.0970   -2.3470 C   0  0  0  0  0  0  0  0  0  0  0  0
   -3.1470    9.1370   -2.2070 C   0  0  0  0  0  3  0  0  0  0  0  0
   -1.7440    8.9060   -2.2120 C   0  0  0  0  0  3  0  0  0  0  0  0
   -1.2190    7.6560   -2.3390 C   0  0  0  0  0  3  0  0  0  0  0  0
   -2.0830    6.5930   -2.4560 C   0  0  0  0  0  3  0  0  0  0  0  0
   -3.4770    6.8350   -2.4870 C   0  0  0  0  0  3  0  0  0  0  0  0
   -7.0580    6.4990   -0.7470 O   0  0  0  0  0  0  0  0  0  0  0  0
   -6.4450    5.8260   -0.3550 H   0  0  0  0  0  0  0  0  0  0  0  0
  1  8  1  0  0  0  0
  2  1  2  0  0  0  0
  3  2  1  0  0  0  0
  4  3  2  0  0  0  0
  4  5  1  0  0  0  0
  5  6  2  0  0  0  0
  6  1  1  0  0  0  0
  8  7  1  0  0  0  0
  9 11  1  0  0  0  0
  9  4  1  0  0  0  0
 10  9  2  0  0  0  0
 11 12  1  0  0  0  0
 13 12  2  0  0  0  0
 14 13  1  0  0  0  0
 15 14  2  0  0  0  0
 16 15  1  0  0  0  0
 16 11  2  0  0  0  0
 17  5  1  0  0  0  0
 17 18  1  0  0  0  0
M  END
>  <MODEL>
1

>  <REMARK>
 VINA RESULT:      -4.5      0.000      0.000
  Name = bgox31_5_ligand
  5 active torsions:
  status: ('A' for Active; 'I' for Inactive)
    1  A    between atoms: C_1  and  O_2
    2  A    between atoms: O_2  and  C_3
    3  A    between atoms: C_6  and  C_7
    4  A    between atoms: C_7  and  C_9
    5  A    between atoms: C_15  and  O_16
                            x       y       z     vdW  Elec       q    Type
                         _______ _______ _______ _____ _____    ______ ____

>  <TORSDO>
F 4

$$$$
bgox31_5_ligand
 OpenBabel10092621253D

 18 19  0  0  0  0  0  0  0  0999 V2000
   -5.9270    8.3800   -1.7630 C   0  0  0  0  0  0  0  0  0  0  0  0
   -6.7730    7.4460   -1.2500 C   0  0  0  0  0  3  0  0  0  0  0  0
   -7.5400    7.7610   -0.1090 C   0  0  0  0  0  3  0  0  0  0  0  0
   -7.4630    8.9820    0.5290 C   0  0  0  0  0  0  0  0  0  0  0  0
   -6.5870    9.9330    0.0110 C   0  0  0  0  0  0  0  0  0  0  0  0
   -5.8070    9.6300   -1.1390 C   0  0  0  0  0  3  0  0  0  0  0  0
   -3.9540    7.1830   -2.7670 C   0  0  0  0  0  1  0  0  0  0  0  0
   -5.2110    7.9020   -2.9170 O   0  0  0  0  0  0  0  0  0  0  0  0
   -8.2610    9.2290    1.7050 C   0  0  0  0  0  0  0  0  0  0  0  0
   -8.9470   10.2580    1.7540 O   0  0  0  0  0  0  0  0  0  0  0  0
   -8.1740    8.3110    2.8850 C   0  0  0  0  0  0  0  0  0  0  0  0
   -6.9920    7.9460    3.5060 C   0  0  0  0  0  3  0  0  0  0  0  0
   -6.9820    7.0630    4.6220 C   0  0  0  0  0  3  0  0  0  0  0  0
   -8.1300    6.5480    5.1440 C   0  0  0  0  0  3  0  0  0  0  0  0
   -9.3270    6.9060    4.5710 C   0  0  0  0  0  3  0  0  0  0  0  0
   -9.3250    7.7550    3.4390 C   0  0  0  0  0  3  0  0  0  0  0  0
   -6.4930   11.1480    0.6050 O   0  0  0  0  0  0  0  0  0  0  0  0
   -6.8440   11.2800    1.5220 H   0  0  0  0  0  0  0  0  0  0  0  0
  1  2  2  0  0  0  0
  1  6  1  0  0  0  0
  2  3  1  0  0  0  0
  3  4  2  0  0  0  0
  4  9  1  0  0  0  0
  5  4  1  0  0  0  0
  5 17  1  0  0  0  0
  6  5  2  0  0  0  0
  8  7  1  0  0  0  0
  8  1  1  0  0  0  0
  9 10  2  0  0  0  0
  9 11  1  0  0  0  0
 11 16  2  0  0  0  0
 11 12  1  0  0  0  0
 12 13  2  0  0  0  0
 13 14  1  0  0  0  0
 15 14  2  0  0  0  0
 16 15  1  0  0  0  0
 17 18  1  0  0  0  0
M  END
>  <MODEL>
2

>  <REMARK>
 VINA RESULT:      -4.2      2.345      6.365
  Name = bgox31_5_ligand
  5 active torsions:
  status: ('A' for Active; 'I' for Inactive)
    1  A    between atoms: C_1  and  O_2
    2  A    between atoms: O_2  and  C_3
    3  A    between atoms: C_6  and  C_7
    4  A    between atoms: C_7  and  C_9
    5  A    between atoms: C_15  and  O_16
                            x       y       z     vdW  Elec       q    Type
                         _______ _______ _______ _____ _____    ______ ____

>  <TORSDO>
F 4

$$$$
bgox31_5_ligand
 OpenBabel10092621253D

 18 19  0  0  0  0  0  0  0  0999 V2000
   -0.4640   -0.3910    1.9630 C   0  0  0  0  0  0  0  0  0  0  0  0
   -0.4550   -0.6630    0.6300 C   0  0  0  0  0  3  0  0  0  0  0  0
    0.5900   -0.1580   -0.1710 C   0  0  0  0  0  3  0  0  0  0  0  0
    1.6100    0.6220    0.3350 C   0  0  0  0  0  0  0  0  0  0  0  0
    1.5930    0.9100    1.6980 C   0  0  0  0  0  0  0  0  0  0  0  0
    0.5460    0.4080    2.5180 C   0  0  0  0  0  3  0  0  0  0  0  0
   -2.2240   -2.1810    2.1340 C   0  0  0  0  0  1  0  0  0  0  0  0
   -1.5980   -0.9680    2.6370 O   0  0  0  0  0  0  0  0  0  0  0  0
    2.6360    1.1230   -0.5470 C   0  0  0  0  0  0  0  0  0  0  0  0
    3.7720    0.6380   -0.4740 O   0  0  0  0  0  0  0  0  0  0  0  0
    2.3550    2.2810   -1.4530 C   0  0  0  0  0  0  0  0  0  0  0  0
    2.4230    3.6100   -1.0690 C   0  0  0  0  0  3  0  0  0  0  0  0
    2.1370    4.6620   -1.9830 C   0  0  0  0  0  3  0  0  0  0  0  0
    1.7980    4.4180   -3.2800 C   0  0  0  0  0  3  0  0  0  0  0  0
    1.7430    3.1130   -3.7070 C   0  0  0  0  0  3  0  0  0  0  0  0
    1.9940    2.0720   -2.7830 C   0  0  0  0  0  3  0  0  0  0  0  0
    2.5850    1.6630    2.2330 O   0  0  0  0  0  0  0  0  0  0  0  0
    3.3990    1.8580    1.7040 H   0  0  0  0  0  0  0  0  0  0  0  0
  1  6  1  0  0  0  0
  1  8  1  0  0  0  0
  2  1  2  0  0  0  0
  3  4  2  0  0  0  0
  3  2  1  0  0  0  0
  4  5  1  0  0  0  0
  5 17  1  0  0  0  0
  5  6  2  0  0  0  0
  7  8  1  0  0  0  0
  9 10  2  0  0  0  0
  9  4  1  0  0  0  0
 11 12  1  0  0  0  0
 11  9  1  0  0  0  0
 13 12  2  0  0  0  0
 14 13  1  0  0  0  0
 15 14  2  0  0  0  0
 15 16  1  0  0  0  0
 16 11  2  0  0  0  0
 18 17  1  0  0  0  0
M  END
>  <MODEL>
3

>  <REMARK>
 VINA RESULT:      -4.2      9.323     10.575
  Name = bgox31_5_ligand
  5 active torsions:
  status: ('A' for Active; 'I' for Inactive)
    1  A    between atoms: C_1  and  O_2
    2  A    between atoms: O_2  and  C_3
    3  A    between atoms: C_6  and  C_7
    4  A    between atoms: C_7  and  C_9
    5  A    between atoms: C_15  and  O_16
                            x       y       z     vdW  Elec       q    Type
                         _______ _______ _______ _____ _____    ______ ____

>  <TORSDO>
F 4

$$$$
bgox31_5_ligand
 OpenBabel10092621253D

 18 19  0  0  0  0  0  0  0  0999 V2000
   -0.5490   -0.5830    2.3950 C   0  0  0  0  0  0  0  0  0  0  0  0
    0.3870    0.3700    2.6520 C   0  0  0  0  0  3  0  0  0  0  0  0
    1.3240    0.7040    1.6530 C   0  0  0  0  0  3  0  0  0  0  0  0
    1.3480    0.0930    0.4160 C   0  0  0  0  0  0  0  0  0  0  0  0
    0.3980   -0.8920    0.1580 C   0  0  0  0  0  0  0  0  0  0  0  0
   -0.5540   -1.2400    1.1560 C   0  0  0  0  0  3  0  0  0  0  0  0
   -1.0850   -0.3140    4.8390 C   0  0  0  0  0  1  0  0  0  0  0  0
   -1.4230   -0.8160    3.5160 O   0  0  0  0  0  0  0  0  0  0  0  0
    2.3500    0.4710   -0.5520 C   0  0  0  0  0  0  0  0  0  0  0  0
    3.3200   -0.2780   -0.7260 O   0  0  0  0  0  0  0  0  0  0  0  0
    2.2690    1.7940   -1.2480 C   0  0  0  0  0  0  0  0  0  0  0  0
    2.7560    2.9820   -0.7290 C   0  0  0  0  0  3  0  0  0  0  0  0
    2.6400    4.2060   -1.4440 C   0  0  0  0  0  3  0  0  0  0  0  0
    2.0620    4.2700   -2.6750 C   0  0  0  0  0  3  0  0  0  0  0  0
    1.5880    3.1080   -3.2360 C   0  0  0  0  0  3  0  0  0  0  0  0
    1.6740    1.9010   -2.5030 C   0  0  0  0  0  3  0  0  0  0  0  0
    0.3830   -1.5060   -1.0500 O   0  0  0  0  0  0  0  0  0  0  0  0
    1.2260   -1.8450   -1.4430 H   0  0  0  0  0  0  0  0  0  0  0  0
  1  2  1  0  0  0  0
  1  8  1  0  0  0  0
  3  2  2  0  0  0  0
  4  3  1  0  0  0  0
  5  4  2  0  0  0  0
  5  6  1  0  0  0  0
  6  1  2  0  0  0  0
  8  7  1  0  0  0  0
  9  4  1  0  0  0  0
 10  9  2  0  0  0  0
 11 12  1  0  0  0  0
 11  9  1  0  0  0  0
 13 12  2  0  0  0  0
 14 13  1  0  0  0  0
 15 14  2  0  0  0  0
 15 16  1  0  0  0  0
 16 11  2  0  0  0  0
 17  5  1  0  0  0  0
 18 17  1  0  0  0  0
M  END
>  <MODEL>
4

>  <REMARK>
 VINA RESULT:      -4.2      9.551     10.609
  Name = bgox31_5_ligand
  5 active torsions:
  status: ('A' for Active; 'I' for Inactive)
    1  A    between atoms: C_1  and  O_2
    2  A    between atoms: O_2  and  C_3
    3  A    between atoms: C_6  and  C_7
    4  A    between atoms: C_7  and  C_9
    5  A    between atoms: C_15  and  O_16
                            x       y       z     vdW  Elec       q    Type
                         _______ _______ _______ _____ _____    ______ ____

>  <TORSDO>
F 4

$$$$
bgox31_5_ligand
 OpenBabel10092621253D

 18 19  0  0  0  0  0  0  0  0999 V2000
    0.0320   13.2880    8.7920 C   0  0  0  0  0  0  0  0  0  0  0  0
    1.3080   13.2250    8.3240 C   0  0  0  0  0  3  0  0  0  0  0  0
    1.5640   13.5330    6.9720 C   0  0  0  0  0  3  0  0  0  0  0  0
    0.5680   13.8860    6.0840 C   0  0  0  0  0  0  0  0  0  0  0  0
   -0.7400   13.9380    6.5610 C   0  0  0  0  0  0  0  0  0  0  0  0
   -1.0130   13.6310    7.9220 C   0  0  0  0  0  3  0  0  0  0  0  0
   -0.6820   11.6840   10.5940 C   0  0  0  0  0  1  0  0  0  0  0  0
   -0.0640   12.9370   10.1850 O   0  0  0  0  0  0  0  0  0  0  0  0
    0.8990   14.1680    4.7080 C   0  0  0  0  0  0  0  0  0  0  0  0
    0.8020   15.3310    4.2990 O   0  0  0  0  0  0  0  0  0  0  0  0
    1.2470   13.0530    3.7710 C   0  0  0  0  0  0  0  0  0  0  0  0
    2.5140   12.5110    3.6360 C   0  0  0  0  0  3  0  0  0  0  0  0
    2.7760   11.4550    2.7200 C   0  0  0  0  0  3  0  0  0  0  0  0
    1.7960   10.9150    1.9430 C   0  0  0  0  0  3  0  0  0  0  0  0
    0.5190   11.4100    2.0640 C   0  0  0  0  0  3  0  0  0  0  0  0
    0.2750   12.4840    2.9510 C   0  0  0  0  0  3  0  0  0  0  0  0
   -1.7430   14.2920    5.7210 O   0  0  0  0  0  0  0  0  0  0  0  0
   -1.6400   14.1630    4.7440 H   0  0  0  0  0  0  0  0  0  0  0  0
  1  8  1  0  0  0  0
  2  1  1  0  0  0  0
  3  2  2  0  0  0  0
  4  5  2  0  0  0  0
  4  3  1  0  0  0  0
  5  6  1  0  0  0  0
  6  1  2  0  0  0  0
  8  7  1  0  0  0  0
  9  4  1  0  0  0  0
 10  9  2  0  0  0  0
 11  9  1  0  0  0  0
 12 11  1  0  0  0  0
 13 12  2  0  0  0  0
 14 15  2  0  0  0  0
 14 13  1  0  0  0  0
 15 16  1  0  0  0  0
 16 11  2  0  0  0  0
 17  5  1  0  0  0  0
 18 17  1  0  0  0  0
M  END
>  <MODEL>
5

>  <REMARK>
 VINA RESULT:      -4.2      8.665     10.304
  Name = bgox31_5_ligand
  5 active torsions:
  status: ('A' for Active; 'I' for Inactive)
    1  A    between atoms: C_1  and  O_2
    2  A    between atoms: O_2  and  C_3
    3  A    between atoms: C_6  and  C_7
    4  A    between atoms: C_7  and  C_9
    5  A    between atoms: C_15  and  O_16
                            x       y       z     vdW  Elec       q    Type
                         _______ _______ _______ _____ _____    ______ ____

>  <TORSDO>
F 4

$$$$
bgox31_5_ligand
 OpenBabel10092621253D

 18 19  0  0  0  0  0  0  0  0999 V2000
    4.0920    3.7100    9.7470 C   0  0  0  0  0  0  0  0  0  0  0  0
    3.7450    3.0940    8.5850 C   0  0  0  0  0  3  0  0  0  0  0  0
    2.6540    2.2010    8.5750 C   0  0  0  0  0  3  0  0  0  0  0  0
    1.9190    1.9060    9.7050 C   0  0  0  0  0  0  0  0  0  0  0  0
    2.2820    2.5270   10.8980 C   0  0  0  0  0  0  0  0  0  0  0  0
    3.3810    3.4310   10.9230 C   0  0  0  0  0  3  0  0  0  0  0  0
    6.5840    4.0550    9.6890 C   0  0  0  0  0  1  0  0  0  0  0  0
    5.2290    4.5790    9.5940 O   0  0  0  0  0  0  0  0  0  0  0  0
    0.8270    0.9660    9.6270 C   0  0  0  0  0  0  0  0  0  0  0  0
    0.9080   -0.0940   10.2610 O   0  0  0  0  0  0  0  0  0  0  0  0
   -0.3280    1.2230    8.7100 C   0  0  0  0  0  0  0  0  0  0  0  0
   -1.2140    2.2790    8.8440 C   0  0  0  0  0  3  0  0  0  0  0  0
   -2.2950    2.4600    7.9380 C   0  0  0  0  0  3  0  0  0  0  0  0
   -2.5050    1.6170    6.8880 C   0  0  0  0  0  3  0  0  0  0  0  0
   -1.6340    0.5700    6.7060 C   0  0  0  0  0  3  0  0  0  0  0  0
   -0.5820    0.3760    7.6330 C   0  0  0  0  0  3  0  0  0  0  0  0
    1.5770    2.2720   12.0260 O   0  0  0  0  0  0  0  0  0  0  0  0
    1.1940    3.0190   12.5510 H   0  0  0  0  0  0  0  0  0  0  0  0
  1  6  1  0  0  0  0
  2  1  2  0  0  0  0
  3  2  1  0  0  0  0
  3  4  2  0  0  0  0
  4  5  1  0  0  0  0
  5  6  2  0  0  0  0
  5 17  1  0  0  0  0
  8  7  1  0  0  0  0
  8  1  1  0  0  0  0
  9  4  1  0  0  0  0
  9 10  2  0  0  0  0
 11 12  1  0  0  0  0
 11  9  1  0  0  0  0
 13 12  2  0  0  0  0
 14 13  1  0  0  0  0
 15 14  2  0  0  0  0
 15 16  1  0  0  0  0
 16 11  2  0  0  0  0
 17 18  1  0  0  0  0
M  END
>  <MODEL>
6

>  <REMARK>
 VINA RESULT:      -4.1     13.416     14.668
  Name = bgox31_5_ligand
  5 active torsions:
  status: ('A' for Active; 'I' for Inactive)
    1  A    between atoms: C_1  and  O_2
    2  A    between atoms: O_2  and  C_3
    3  A    between atoms: C_6  and  C_7
    4  A    between atoms: C_7  and  C_9
    5  A    between atoms: C_15  and  O_16
                            x       y       z     vdW  Elec       q    Type
                         _______ _______ _______ _____ _____    ______ ____

>  <TORSDO>
F 4

$$$$
bgox31_5_ligand
 OpenBabel10092621253D

 18 19  0  0  0  0  0  0  0  0999 V2000
    1.0340   14.7140    5.2770 C   0  0  0  0  0  0  0  0  0  0  0  0
    1.7260   13.5820    5.5750 C   0  0  0  0  0  3  0  0  0  0  0  0
    1.7520   12.5230    4.6430 C   0  0  0  0  0  3  0  0  0  0  0  0
    1.0890   12.5760    3.4330 C   0  0  0  0  0  0  0  0  0  0  0  0
    0.3700   13.7310    3.1350 C   0  0  0  0  0  0  0  0  0  0  0  0
    0.3350   14.8060    4.0650 C   0  0  0  0  0  3  0  0  0  0  0  0
    1.2070   15.2800    7.7230 C   0  0  0  0  0  1  0  0  0  0  0  0
    1.0960   15.6930    6.3310 O   0  0  0  0  0  0  0  0  0  0  0  0
    1.1410   11.4470    2.5370 C   0  0  0  0  0  0  0  0  0  0  0  0
    0.1620   10.6920    2.4720 O   0  0  0  0  0  0  0  0  0  0  0  0
    2.3980   11.1360    1.7840 C   0  0  0  0  0  0  0  0  0  0  0  0
    3.5870   10.7430    2.3750 C   0  0  0  0  0  3  0  0  0  0  0  0
    4.7460   10.4680    1.5970 C   0  0  0  0  0  3  0  0  0  0  0  0
    4.7420   10.5610    0.2380 C   0  0  0  0  0  3  0  0  0  0  0  0
    3.5740   10.9250   -0.3880 C   0  0  0  0  0  3  0  0  0  0  0  0
    2.4360   11.2320    0.3940 C   0  0  0  0  0  3  0  0  0  0  0  0
   -0.2850   13.8230    1.9530 O   0  0  0  0  0  0  0  0  0  0  0  0
    0.1490   13.5040    1.1210 H   0  0  0  0  0  0  0  0  0  0  0  0
  1  2  1  0  0  0  0
  1  8  1  0  0  0  0
  3  2  2  0  0  0  0
  4  3  1  0  0  0  0
  5  4  2  0  0  0  0
  5  6  1  0  0  0  0
  6  1  2  0  0  0  0
  8  7  1  0  0  0  0
  9  4  1  0  0  0  0
 10  9  2  0  0  0  0
 11 12  1  0  0  0  0
 11  9  1  0  0  0  0
 13 12  2  0  0  0  0
 14 13  1  0  0  0  0
 15 14  2  0  0  0  0
 15 16  1  0  0  0  0
 16 11  2  0  0  0  0
 17  5  1  0  0  0  0
 18 17  1  0  0  0  0
M  END
>  <MODEL>
7

>  <REMARK>
 VINA RESULT:      -4.1      8.123      9.406
  Name = bgox31_5_ligand
  5 active torsions:
  status: ('A' for Active; 'I' for Inactive)
    1  A    between atoms: C_1  and  O_2
    2  A    between atoms: O_2  and  C_3
    3  A    between atoms: C_6  and  C_7
    4  A    between atoms: C_7  and  C_9
    5  A    between atoms: C_15  and  O_16
                            x       y       z     vdW  Elec       q    Type
                         _______ _______ _______ _____ _____    ______ ____

>  <TORSDO>
F 4

$$$$
bgox31_5_ligand
 OpenBabel10092621253D

 18 19  0  0  0  0  0  0  0  0999 V2000
   -5.3950    9.5030   -1.7950 C   0  0  0  0  0  0  0  0  0  0  0  0
   -5.9030   10.4160   -0.9240 C   0  0  0  0  0  3  0  0  0  0  0  0
   -6.8480   10.0010    0.0380 C   0  0  0  0  0  3  0  0  0  0  0  0
   -7.2990    8.7000    0.1300 C   0  0  0  0  0  0  0  0  0  0  0  0
   -6.7880    7.7690   -0.7710 C   0  0  0  0  0  0  0  0  0  0  0  0
   -5.8350    8.1720   -1.7460 C   0  0  0  0  0  3  0  0  0  0  0  0
   -3.8120   11.3560   -2.4210 C   0  0  0  0  0  1  0  0  0  0  0  0
   -4.4540   10.0830   -2.7170 O   0  0  0  0  0  0  0  0  0  0  0  0
   -8.2840    8.3510    1.1250 C   0  0  0  0  0  0  0  0  0  0  0  0
   -9.4010    7.9720    0.7500 O   0  0  0  0  0  0  0  0  0  0  0  0
   -7.9920    8.5490    2.5800 C   0  0  0  0  0  0  0  0  0  0  0  0
   -8.5960    9.5070    3.3760 C   0  0  0  0  0  3  0  0  0  0  0  0
   -8.2670    9.6430    4.7530 C   0  0  0  0  0  3  0  0  0  0  0  0
   -7.3560    8.8330    5.3600 C   0  0  0  0  0  3  0  0  0  0  0  0
   -6.7510    7.8520    4.6100 C   0  0  0  0  0  3  0  0  0  0  0  0
   -7.0580    7.7470    3.2330 C   0  0  0  0  0  3  0  0  0  0  0  0
   -7.2000    6.4800   -0.7040 O   0  0  0  0  0  0  0  0  0  0  0  0
   -7.1770    5.9090   -1.5130 H   0  0  0  0  0  0  0  0  0  0  0  0
  1  6  2  0  0  0  0
  1  2  1  0  0  0  0
  2  3  2  0  0  0  0
  3  4  1  0  0  0  0
  4  9  1  0  0  0  0
  5 17  1  0  0  0  0
  5  4  2  0  0  0  0
  6  5  1  0  0  0  0
  8  7  1  0  0  0  0
  8  1  1  0  0  0  0
  9 11  1  0  0  0  0
 10  9  2  0  0  0  0
 11 16  2  0  0  0  0
 11 12  1  0  0  0  0
 12 13  2  0  0  0  0
 13 14  1  0  0  0  0
 15 14  2  0  0  0  0
 16 15  1  0  0  0  0
 18 17  1  0  0  0  0
M  END
>  <MODEL>
8

>  <REMARK>
 VINA RESULT:      -4.1      2.309      5.789
  Name = bgox31_5_ligand
  5 active torsions:
  status: ('A' for Active; 'I' for Inactive)
    1  A    between atoms: C_1  and  O_2
    2  A    between atoms: O_2  and  C_3
    3  A    between atoms: C_6  and  C_7
    4  A    between atoms: C_7  and  C_9
    5  A    between atoms: C_15  and  O_16
                            x       y       z     vdW  Elec       q    Type
                         _______ _______ _______ _____ _____    ______ ____

>  <TORSDO>
F 4

$$$$
bgox31_5_ligand
 OpenBabel10092621253D

 18 19  0  0  0  0  0  0  0  0999 V2000
    1.3100   12.5420    2.8070 C   0  0  0  0  0  0  0  0  0  0  0  0
    2.0690   12.3630    3.9210 C   0  0  0  0  0  3  0  0  0  0  0  0
    1.6980   13.0070    5.1200 C   0  0  0  0  0  3  0  0  0  0  0  0
    0.5960   13.8330    5.2150 C   0  0  0  0  0  0  0  0  0  0  0  0
   -0.1730   14.0260    4.0700 C   0  0  0  0  0  0  0  0  0  0  0  0
    0.1880   13.3830    2.8540 C   0  0  0  0  0  3  0  0  0  0  0  0
    0.9220   11.2630    0.6750 C   0  0  0  0  0  1  0  0  0  0  0  0
    1.8240   11.8280    1.6670 O   0  0  0  0  0  0  0  0  0  0  0  0
    0.2880   14.4770    6.4690 C   0  0  0  0  0  0  0  0  0  0  0  0
    0.5760   15.6730    6.6100 O   0  0  0  0  0  0  0  0  0  0  0  0
   -0.2670   13.6840    7.6110 C   0  0  0  0  0  0  0  0  0  0  0  0
    0.5040   13.0160    8.5470 C   0  0  0  0  0  3  0  0  0  0  0  0
   -0.0910   12.2750    9.6060 C   0  0  0  0  0  3  0  0  0  0  0  0
   -1.4420   12.1980    9.7610 C   0  0  0  0  0  3  0  0  0  0  0  0
   -2.2420   12.8680    8.8660 C   0  0  0  0  0  3  0  0  0  0  0  0
   -1.6430   13.5720    7.7960 C   0  0  0  0  0  3  0  0  0  0  0  0
   -1.2690   14.8210    4.1280 O   0  0  0  0  0  0  0  0  0  0  0  0
   -1.8320   14.8280    4.9420 H   0  0  0  0  0  0  0  0  0  0  0  0
  1  6  2  0  0  0  0
  1  2  1  0  0  0  0
  2  3  2  0  0  0  0
  3  4  1  0  0  0  0
  4  9  1  0  0  0  0
  5 17  1  0  0  0  0
  5  4  2  0  0  0  0
  6  5  1  0  0  0  0
  7  8  1  0  0  0  0
  8  1  1  0  0  0  0
  9 10  2  0  0  0  0
  9 11  1  0  0  0  0
 11 16  2  0  0  0  0
 11 12  1  0  0  0  0
 12 13  2  0  0  0  0
 13 14  1  0  0  0  0
 15 14  2  0  0  0  0
 16 15  1  0  0  0  0
 17 18  1  0  0  0  0
M  END
>  <MODEL>
9

>  <REMARK>
 VINA RESULT:      -4.1      8.526     11.345
  Name = bgox31_5_ligand
  5 active torsions:
  status: ('A' for Active; 'I' for Inactive)
    1  A    between atoms: C_1  and  O_2
    2  A    between atoms: O_2  and  C_3
    3  A    between atoms: C_6  and  C_7
    4  A    between atoms: C_7  and  C_9
    5  A    between atoms: C_15  and  O_16
                            x       y       z     vdW  Elec       q    Type
                         _______ _______ _______ _____ _____    ______ ____

>  <TORSDO>
F 4

$$$$
