bgox31_4_ligand
 OpenBabel10092621243D

 18 19  0  0  0  0  0  0  0  0999 V2000
   -0.2890   -2.9360   -4.0130 C   0  0  0  0  0  0  0  0  0  0  0  0
   -0.9990   -3.5140   -2.9970 C   0  0  0  0  0  3  0  0  0  0  0  0
   -2.0050   -4.5120   -3.2680 C   0  0  0  0  0  3  0  0  0  0  0  0
   -2.2550   -4.8100   -4.6150 C   0  0  0  0  0  0  0  0  0  0  0  0
   -1.5060   -4.2220   -5.6260 C   0  0  0  0  0  0  0  0  0  0  0  0
   -0.5130   -3.2630   -5.3520 C   0  0  0  0  0  3  0  0  0  0  0  0
    1.4110   -1.4700   -4.8290 C   0  0  0  0  0  1  0  0  0  0  0  0
    0.6790   -2.0140   -3.6990 O   0  0  0  0  0  0  0  0  0  0  0  0
   -3.3090   -5.8050   -4.8810 C   0  0  0  0  0  0  0  0  0  0  0  0
   -4.3420   -5.3870   -5.5020 O   0  0  0  0  0  0  0  0  0  0  0  0
   -3.1470   -7.2500   -4.7030 C   0  0  0  0  0  0  0  0  0  0  0  0
   -4.2950   -7.9760   -4.3550 C   0  0  0  0  0  3  0  0  0  0  0  0
   -4.1740   -9.3570   -4.0840 C   0  0  0  0  0  3  0  0  0  0  0  0
   -2.9440   -9.9350   -4.0700 C   0  0  0  0  0  3  0  0  0  0  0  0
   -1.7900   -9.2240   -4.3500 C   0  0  0  0  0  3  0  0  0  0  0  0
   -1.8730   -7.8490   -4.6460 C   0  0  0  0  0  3  0  0  0  0  0  0
   -1.7930   -4.5850   -6.9530 O   0  0  0  0  0  0  0  0  0  0  0  0
   -2.2680   -3.9510   -7.5480 H   0  0  0  0  0  0  0  0  0  0  0  0
  1  8  1  0  0  0  0
  1  2  1  0  0  0  0
  3  2  2  0  0  0  0
  4  3  1  0  0  0  0
  5  6  1  0  0  0  0
  5  4  2  0  0  0  0
  6  1  2  0  0  0  0
  7  8  1  0  0  0  0
  9 11  1  0  0  0  0
  9  4  1  0  0  0  0
 10  9  2  0  0  0  0
 11 16  2  0  0  0  0
 11 12  1  0  0  0  0
 12 13  2  0  0  0  0
 13 14  1  0  0  0  0
 15 14  2  0  0  0  0
 16 15  1  0  0  0  0
 17  5  1  0  0  0  0
 18 17  1  0  0  0  0
M  END
>  <MODEL>
1

>  <REMARK>
 VINA RESULT:      -4.9      0.000      0.000
  Name = bgox31_4_ligand
  5 active torsions:
  status: ('A' for Active; 'I' for Inactive)
    1  A    between atoms: C_1  and  O_2
    2  A    between atoms: O_2  and  C_3
    3  A    between atoms: C_6  and  C_7
    4  A    between atoms: C_7  and  C_9
    5  A    between atoms: C_15  and  O_16
                            x       y       z     vdW  Elec       q    Type
                         _______ _______ _______ _____ _____    ______ ____

>  <TORSDO>
F 4

$$$$
bgox31_4_ligand
 OpenBabel10092621243D

 18 19  0  0  0  0  0  0  0  0999 V2000
    0.3020   -2.9040   -4.3150 C   0  0  0  0  0  0  0  0  0  0  0  0
   -0.2570   -3.1880   -3.1000 C   0  0  0  0  0  3  0  0  0  0  0  0
   -1.4570   -3.9830   -3.0020 C   0  0  0  0  0  3  0  0  0  0  0  0
   -2.0460   -4.3920   -4.2070 C   0  0  0  0  0  0  0  0  0  0  0  0
   -1.4460   -4.1060   -5.4260 C   0  0  0  0  0  0  0  0  0  0  0  0
   -0.2650   -3.3460   -5.5120 C   0  0  0  0  0  3  0  0  0  0  0  0
    1.4680   -1.0610   -5.2890 C   0  0  0  0  0  1  0  0  0  0  0  0
    1.4620   -2.1700   -4.3510 O   0  0  0  0  0  0  0  0  0  0  0  0
   -3.2900   -5.1730   -4.0950 C   0  0  0  0  0  0  0  0  0  0  0  0
   -3.1920   -6.4290   -4.2950 O   0  0  0  0  0  0  0  0  0  0  0  0
   -4.5460   -4.6580   -3.5440 C   0  0  0  0  0  0  0  0  0  0  0  0
   -4.9620   -3.3970   -3.9920 C   0  0  0  0  0  3  0  0  0  0  0  0
   -6.1180   -2.8160   -3.4240 C   0  0  0  0  0  3  0  0  0  0  0  0
   -6.7470   -3.4390   -2.3940 C   0  0  0  0  0  3  0  0  0  0  0  0
   -6.3170   -4.6570   -1.8930 C   0  0  0  0  0  3  0  0  0  0  0  0
   -5.1800   -5.2770   -2.4490 C   0  0  0  0  0  3  0  0  0  0  0  0
   -2.0770   -4.5690   -6.5940 O   0  0  0  0  0  0  0  0  0  0  0  0
   -1.7170   -5.3560   -7.0730 H   0  0  0  0  0  0  0  0  0  0  0  0
  1  2  1  0  0  0  0
  2  3  2  0  0  0  0
  4  9  1  0  0  0  0
  4  3  1  0  0  0  0
  5  4  2  0  0  0  0
  6  5  1  0  0  0  0
  6  1  2  0  0  0  0
  7  8  1  0  0  0  0
  8  1  1  0  0  0  0
  9 11  1  0  0  0  0
 10  9  2  0  0  0  0
 11 16  1  0  0  0  0
 12 11  2  0  0  0  0
 12 13  1  0  0  0  0
 13 14  2  0  0  0  0
 14 15  1  0  0  0  0
 16 15  2  0  0  0  0
 17  5  1  0  0  0  0
 18 17  1  0  0  0  0
M  END
>  <MODEL>
2

>  <REMARK>
 VINA RESULT:      -4.7      2.353      3.570
  Name = bgox31_4_ligand
  5 active torsions:
  status: ('A' for Active; 'I' for Inactive)
    1  A    between atoms: C_1  and  O_2
    2  A    between atoms: O_2  and  C_3
    3  A    between atoms: C_6  and  C_7
    4  A    between atoms: C_7  and  C_9
    5  A    between atoms: C_15  and  O_16
                            x       y       z     vdW  Elec       q    Type
                         _______ _______ _______ _____ _____    ______ ____

>  <TORSDO>
F 4

$$$$
bgox31_4_ligand
 OpenBabel10092621243D

 18 19  0  0  0  0  0  0  0  0999 V2000
   -5.5580   -4.4680   -3.2300 C   0  0  0  0  0  0  0  0  0  0  0  0
   -4.4870   -5.2640   -2.9250 C   0  0  0  0  0  3  0  0  0  0  0  0
   -3.2370   -5.1270   -3.6300 C   0  0  0  0  0  3  0  0  0  0  0  0
   -3.1950   -4.1890   -4.6710 C   0  0  0  0  0  0  0  0  0  0  0  0
   -4.2890   -3.3810   -4.9460 C   0  0  0  0  0  0  0  0  0  0  0  0
   -5.5010   -3.5070   -4.2410 C   0  0  0  0  0  3  0  0  0  0  0  0
   -6.5400   -4.7720   -1.0740 C   0  0  0  0  0  1  0  0  0  0  0  0
   -6.7160   -4.6180   -2.5080 O   0  0  0  0  0  0  0  0  0  0  0  0
   -1.9220   -4.0830   -5.4060 C   0  0  0  0  0  0  0  0  0  0  0  0
   -1.8580   -4.6970   -6.5230 O   0  0  0  0  0  0  0  0  0  0  0  0
   -0.8460   -3.1470   -5.0700 C   0  0  0  0  0  0  0  0  0  0  0  0
   -0.2460   -2.4650   -6.1360 C   0  0  0  0  0  3  0  0  0  0  0  0
    0.8560   -1.6200   -5.8740 C   0  0  0  0  0  3  0  0  0  0  0  0
    1.3740   -1.5590   -4.6200 C   0  0  0  0  0  3  0  0  0  0  0  0
    0.8360   -2.2740   -3.5630 C   0  0  0  0  0  3  0  0  0  0  0  0
   -0.2770   -3.1100   -3.7810 C   0  0  0  0  0  3  0  0  0  0  0  0
   -4.1700   -2.4440   -5.9870 O   0  0  0  0  0  0  0  0  0  0  0  0
   -4.7090   -1.6130   -5.9700 H   0  0  0  0  0  0  0  0  0  0  0  0
  1  2  1  0  0  0  0
  1  8  1  0  0  0  0
  3  2  2  0  0  0  0
  4  3  1  0  0  0  0
  5  4  2  0  0  0  0
  5  6  1  0  0  0  0
  6  1  2  0  0  0  0
  8  7  1  0  0  0  0
  9 11  1  0  0  0  0
  9  4  1  0  0  0  0
 10  9  2  0  0  0  0
 11 16  1  0  0  0  0
 12 13  1  0  0  0  0
 12 11  2  0  0  0  0
 13 14  2  0  0  0  0
 14 15  1  0  0  0  0
 16 15  2  0  0  0  0
 17 18  1  0  0  0  0
 17  5  1  0  0  0  0
M  END
>  <MODEL>
3

>  <REMARK>
 VINA RESULT:      -4.7      2.691      5.895
  Name = bgox31_4_ligand
  5 active torsions:
  status: ('A' for Active; 'I' for Inactive)
    1  A    between atoms: C_1  and  O_2
    2  A    between atoms: O_2  and  C_3
    3  A    between atoms: C_6  and  C_7
    4  A    between atoms: C_7  and  C_9
    5  A    between atoms: C_15  and  O_16
                            x       y       z     vdW  Elec       q    Type
                         _______ _______ _______ _____ _____    ______ ____

>  <TORSDO>
F 4

$$$$
bgox31_4_ligand
 OpenBabel10092621243D

 18 19  0  0  0  0  0  0  0  0999 V2000
   -1.1410   -6.2660   -9.6240 C   0  0  0  0  0  0  0  0  0  0  0  0
   -0.2670   -5.2160   -9.7020 C   0  0  0  0  0  3  0  0  0  0  0  0
   -0.3450   -4.1150   -8.7740 C   0  0  0  0  0  3  0  0  0  0  0  0
   -1.3880   -4.1470   -7.8380 C   0  0  0  0  0  0  0  0  0  0  0  0
   -2.2490   -5.2350   -7.7690 C   0  0  0  0  0  0  0  0  0  0  0  0
   -2.1550   -6.3150   -8.6660 C   0  0  0  0  0  3  0  0  0  0  0  0
    0.3640   -7.6460  -10.8620 C   0  0  0  0  0  1  0  0  0  0  0  0
   -1.0030   -7.3040  -10.5120 O   0  0  0  0  0  0  0  0  0  0  0  0
   -1.4790   -3.0000   -6.9180 C   0  0  0  0  0  0  0  0  0  0  0  0
   -2.5310   -2.2840   -7.0040 O   0  0  0  0  0  0  0  0  0  0  0  0
   -0.5840   -2.7780   -5.7800 C   0  0  0  0  0  0  0  0  0  0  0  0
   -0.9650   -3.3460   -4.5570 C   0  0  0  0  0  3  0  0  0  0  0  0
   -0.1840   -3.0850   -3.4090 C   0  0  0  0  0  3  0  0  0  0  0  0
    0.8590   -2.2170   -3.4870 C   0  0  0  0  0  3  0  0  0  0  0  0
    1.2160   -1.5960   -4.6720 C   0  0  0  0  0  3  0  0  0  0  0  0
    0.4730   -1.8480   -5.8430 C   0  0  0  0  0  3  0  0  0  0  0  0
   -3.2580   -5.2130   -6.7900 O   0  0  0  0  0  0  0  0  0  0  0  0
   -3.4650   -4.3720   -6.3110 H   0  0  0  0  0  0  0  0  0  0  0  0
  1  6  1  0  0  0  0
  2  1  2  0  0  0  0
  2  3  1  0  0  0  0
  3  4  2  0  0  0  0
  4  5  1  0  0  0  0
  4  9  1  0  0  0  0
  5 17  1  0  0  0  0
  6  5  2  0  0  0  0
  7  8  1  0  0  0  0
  8  1  1  0  0  0  0
  9 11  1  0  0  0  0
 10  9  2  0  0  0  0
 11 12  1  0  0  0  0
 12 13  2  0  0  0  0
 14 13  1  0  0  0  0
 15 14  2  0  0  0  0
 16 11  2  0  0  0  0
 16 15  1  0  0  0  0
 17 18  1  0  0  0  0
M  END
>  <MODEL>
4

>  <REMARK>
 VINA RESULT:      -4.7      3.424      6.194
  Name = bgox31_4_ligand
  5 active torsions:
  status: ('A' for Active; 'I' for Inactive)
    1  A    between atoms: C_1  and  O_2
    2  A    between atoms: O_2  and  C_3
    3  A    between atoms: C_6  and  C_7
    4  A    between atoms: C_7  and  C_9
    5  A    between atoms: C_15  and  O_16
                            x       y       z     vdW  Elec       q    Type
                         _______ _______ _______ _____ _____    ______ ____

>  <TORSDO>
F 4

$$$$
bgox31_4_ligand
 OpenBabel10092621243D

 18 19  0  0  0  0  0  0  0  0999 V2000
   -0.1610   -2.8850   -4.0670 C   0  0  0  0  0  0  0  0  0  0  0  0
   -0.2460   -3.2830   -5.3740 C   0  0  0  0  0  3  0  0  0  0  0  0
   -1.2420   -4.2380   -5.7950 C   0  0  0  0  0  3  0  0  0  0  0  0
   -2.0660   -4.7760   -4.7970 C   0  0  0  0  0  0  0  0  0  0  0  0
   -1.9710   -4.3400   -3.4820 C   0  0  0  0  0  0  0  0  0  0  0  0
   -1.0090   -3.3930   -3.0820 C   0  0  0  0  0  3  0  0  0  0  0  0
    1.5780   -1.4350   -4.8270 C   0  0  0  0  0  1  0  0  0  0  0  0
    0.7840   -1.9500   -3.7250 O   0  0  0  0  0  0  0  0  0  0  0  0
   -3.0560   -5.7760   -5.2340 C   0  0  0  0  0  0  0  0  0  0  0  0
   -4.2380   -5.3490   -5.4530 O   0  0  0  0  0  0  0  0  0  0  0  0
   -2.7250   -7.1390   -5.6580 C   0  0  0  0  0  0  0  0  0  0  0  0
   -2.1050   -7.9630   -4.7100 C   0  0  0  0  0  3  0  0  0  0  0  0
   -1.6840   -9.2550   -5.0970 C   0  0  0  0  0  3  0  0  0  0  0  0
   -1.7970   -9.6390   -6.3960 C   0  0  0  0  0  3  0  0  0  0  0  0
   -2.3500   -8.8170   -7.3630 C   0  0  0  0  0  3  0  0  0  0  0  0
   -2.8010   -7.5290   -7.0100 C   0  0  0  0  0  3  0  0  0  0  0  0
   -2.8460   -4.9030   -2.5370 O   0  0  0  0  0  0  0  0  0  0  0  0
   -3.5740   -4.3560   -2.1470 H   0  0  0  0  0  0  0  0  0  0  0  0
  1  8  1  0  0  0  0
  1  6  1  0  0  0  0
  2  1  2  0  0  0  0
  3  2  1  0  0  0  0
  3  4  2  0  0  0  0
  4  5  1  0  0  0  0
  5  6  2  0  0  0  0
  5 17  1  0  0  0  0
  7  8  1  0  0  0  0
  9  4  1  0  0  0  0
 10  9  2  0  0  0  0
 11  9  1  0  0  0  0
 11 12  1  0  0  0  0
 13 12  2  0  0  0  0
 14 13  1  0  0  0  0
 15 16  1  0  0  0  0
 15 14  2  0  0  0  0
 16 11  2  0  0  0  0
 17 18  1  0  0  0  0
M  END
>  <MODEL>
5

>  <REMARK>
 VINA RESULT:      -4.6      1.373      2.180
  Name = bgox31_4_ligand
  5 active torsions:
  status: ('A' for Active; 'I' for Inactive)
    1  A    between atoms: C_1  and  O_2
    2  A    between atoms: O_2  and  C_3
    3  A    between atoms: C_6  and  C_7
    4  A    between atoms: C_7  and  C_9
    5  A    between atoms: C_15  and  O_16
                            x       y       z     vdW  Elec       q    Type
                         _______ _______ _______ _____ _____    ______ ____

>  <TORSDO>
F 4

$$$$
bgox31_4_ligand
 OpenBabel10092621243D

 18 19  0  0  0  0  0  0  0  0999 V2000
   -2.5010   -8.0600   -6.3920 C   0  0  0  0  0  0  0  0  0  0  0  0
   -2.1610   -7.8710   -5.0800 C   0  0  0  0  0  3  0  0  0  0  0  0
   -2.0840   -6.5450   -4.5170 C   0  0  0  0  0  3  0  0  0  0  0  0
   -2.3120   -5.4720   -5.3900 C   0  0  0  0  0  0  0  0  0  0  0  0
   -2.6750   -5.6930   -6.7120 C   0  0  0  0  0  0  0  0  0  0  0  0
   -2.7660   -6.9910   -7.2490 C   0  0  0  0  0  3  0  0  0  0  0  0
   -1.8380  -10.3390   -6.1250 C   0  0  0  0  0  1  0  0  0  0  0  0
   -2.5910   -9.3440   -6.8700 O   0  0  0  0  0  0  0  0  0  0  0  0
   -2.1960   -4.1220   -4.8120 C   0  0  0  0  0  0  0  0  0  0  0  0
   -3.1790   -3.7190   -4.1050 O   0  0  0  0  0  0  0  0  0  0  0  0
   -0.9620   -3.3330   -4.7890 C   0  0  0  0  0  0  0  0  0  0  0  0
   -0.4060   -3.0660   -3.5310 C   0  0  0  0  0  3  0  0  0  0  0  0
    0.7330   -2.2330   -3.4500 C   0  0  0  0  0  3  0  0  0  0  0  0
    1.2080   -1.6310   -4.5720 C   0  0  0  0  0  3  0  0  0  0  0  0
    0.6360   -1.8310   -5.8170 C   0  0  0  0  0  3  0  0  0  0  0  0
   -0.4880   -2.6720   -5.9400 C   0  0  0  0  0  3  0  0  0  0  0  0
   -2.9140   -4.5720   -7.5250 O   0  0  0  0  0  0  0  0  0  0  0  0
   -3.5700   -3.8860   -7.2430 H   0  0  0  0  0  0  0  0  0  0  0  0
  1  2  1  0  0  0  0
  2  3  2  0  0  0  0
  4  9  1  0  0  0  0
  4  3  1  0  0  0  0
  5  4  2  0  0  0  0
  6  5  1  0  0  0  0
  6  1  2  0  0  0  0
  8  1  1  0  0  0  0
  8  7  1  0  0  0  0
  9 11  1  0  0  0  0
  9 10  2  0  0  0  0
 11 12  1  0  0  0  0
 12 13  2  0  0  0  0
 14 13  1  0  0  0  0
 15 14  2  0  0  0  0
 16 15  1  0  0  0  0
 16 11  2  0  0  0  0
 17 18  1  0  0  0  0
 17  5  1  0  0  0  0
M  END
>  <MODEL>
6

>  <REMARK>
 VINA RESULT:      -4.6      1.803      5.878
  Name = bgox31_4_ligand
  5 active torsions:
  status: ('A' for Active; 'I' for Inactive)
    1  A    between atoms: C_1  and  O_2
    2  A    between atoms: O_2  and  C_3
    3  A    between atoms: C_6  and  C_7
    4  A    between atoms: C_7  and  C_9
    5  A    between atoms: C_15  and  O_16
                            x       y       z     vdW  Elec       q    Type
                         _______ _______ _______ _____ _____    ______ ____

>  <TORSDO>
F 4

$$$$
bgox31_4_ligand
 OpenBabel10092621243D

 18 19  0  0  0  0  0  0  0  0999 V2000
   -3.3570   -0.1250   -9.3020 C   0  0  0  0  0  0  0  0  0  0  0  0
   -3.6640   -0.3560   -7.9890 C   0  0  0  0  0  3  0  0  0  0  0  0
   -2.9410   -1.3380   -7.2190 C   0  0  0  0  0  3  0  0  0  0  0  0
   -1.9600   -2.0770   -7.8950 C   0  0  0  0  0  0  0  0  0  0  0  0
   -1.6540   -1.8080   -9.2230 C   0  0  0  0  0  0  0  0  0  0  0  0
   -2.3520   -0.8340   -9.9630 C   0  0  0  0  0  3  0  0  0  0  0  0
   -3.3020    2.0430  -10.3020 C   0  0  0  0  0  1  0  0  0  0  0  0
   -4.0550    0.8430   -9.9810 O   0  0  0  0  0  0  0  0  0  0  0  0
   -1.2520   -3.1010   -7.1070 C   0  0  0  0  0  0  0  0  0  0  0  0
   -1.1620   -4.2600   -7.6320 O   0  0  0  0  0  0  0  0  0  0  0  0
   -0.4560   -2.8220   -5.9090 C   0  0  0  0  0  0  0  0  0  0  0  0
   -0.8910   -3.4050   -4.7120 C   0  0  0  0  0  3  0  0  0  0  0  0
   -0.2100   -3.0940   -3.5140 C   0  0  0  0  0  3  0  0  0  0  0  0
    0.7830   -2.1670   -3.5250 C   0  0  0  0  0  3  0  0  0  0  0  0
    1.1870   -1.5310   -4.6860 C   0  0  0  0  0  3  0  0  0  0  0  0
    0.5470   -1.8310   -5.9050 C   0  0  0  0  0  3  0  0  0  0  0  0
   -0.6420   -2.5690   -9.8320 O   0  0  0  0  0  0  0  0  0  0  0  0
    0.2890   -2.5120   -9.5000 H   0  0  0  0  0  0  0  0  0  0  0  0
  1  2  1  0  0  0  0
  2  3  2  0  0  0  0
  4  3  1  0  0  0  0
  4  9  1  0  0  0  0
  5  4  2  0  0  0  0
  6  1  2  0  0  0  0
  6  5  1  0  0  0  0
  7  8  1  0  0  0  0
  8  1  1  0  0  0  0
  9 11  1  0  0  0  0
 10  9  2  0  0  0  0
 11 16  2  0  0  0  0
 11 12  1  0  0  0  0
 12 13  2  0  0  0  0
 14 13  1  0  0  0  0
 15 14  2  0  0  0  0
 16 15  1  0  0  0  0
 17 18  1  0  0  0  0
 17  5  1  0  0  0  0
M  END
>  <MODEL>
7

>  <REMARK>
 VINA RESULT:      -4.5      3.959      6.253
  Name = bgox31_4_ligand
  5 active torsions:
  status: ('A' for Active; 'I' for Inactive)
    1  A    between atoms: C_1  and  O_2
    2  A    between atoms: O_2  and  C_3
    3  A    between atoms: C_6  and  C_7
    4  A    between atoms: C_7  and  C_9
    5  A    between atoms: C_15  and  O_16
                            x       y       z     vdW  Elec       q    Type
                         _______ _______ _______ _____ _____    ______ ____

>  <TORSDO>
F 4

$$$$
bgox31_4_ligand
 OpenBabel10092621243D

 18 19  0  0  0  0  0  0  0  0999 V2000
   -2.2870   -8.3160   -6.1570 C   0  0  0  0  0  0  0  0  0  0  0  0
   -2.0290   -7.9080   -4.8770 C   0  0  0  0  0  3  0  0  0  0  0  0
   -2.1300   -6.5180   -4.5070 C   0  0  0  0  0  3  0  0  0  0  0  0
   -2.4430   -5.6100   -5.5290 C   0  0  0  0  0  0  0  0  0  0  0  0
   -2.7200   -6.0540   -6.8150 C   0  0  0  0  0  0  0  0  0  0  0  0
   -2.6370   -7.4160   -7.1650 C   0  0  0  0  0  3  0  0  0  0  0  0
   -1.4280  -10.4500   -5.5170 C   0  0  0  0  0  1  0  0  0  0  0  0
   -2.2070   -9.6550   -6.4500 O   0  0  0  0  0  0  0  0  0  0  0  0
   -2.5090   -4.1890   -5.1460 C   0  0  0  0  0  0  0  0  0  0  0  0
   -3.6550   -3.7450   -4.8050 O   0  0  0  0  0  0  0  0  0  0  0  0
   -1.3390   -3.3410   -4.9010 C   0  0  0  0  0  0  0  0  0  0  0  0
   -0.7460   -2.7450   -6.0220 C   0  0  0  0  0  3  0  0  0  0  0  0
    0.4370   -1.9930   -5.8490 C   0  0  0  0  0  3  0  0  0  0  0  0
    1.0300   -1.9410   -4.6280 C   0  0  0  0  0  3  0  0  0  0  0  0
    0.4950   -2.5740   -3.5190 C   0  0  0  0  0  3  0  0  0  0  0  0
   -0.6960   -3.3170   -3.6480 C   0  0  0  0  0  3  0  0  0  0  0  0
   -3.0510   -5.0930   -7.7860 O   0  0  0  0  0  0  0  0  0  0  0  0
   -3.9910   -4.9880   -8.0790 H   0  0  0  0  0  0  0  0  0  0  0  0
  1  2  1  0  0  0  0
  2  3  2  0  0  0  0
  4  9  1  0  0  0  0
  4  3  1  0  0  0  0
  5  4  2  0  0  0  0
  6  5  1  0  0  0  0
  6  1  2  0  0  0  0
  8  1  1  0  0  0  0
  8  7  1  0  0  0  0
  9 11  1  0  0  0  0
  9 10  2  0  0  0  0
 11 16  1  0  0  0  0
 12 13  1  0  0  0  0
 12 11  2  0  0  0  0
 13 14  2  0  0  0  0
 14 15  1  0  0  0  0
 16 15  2  0  0  0  0
 17  5  1  0  0  0  0
 18 17  1  0  0  0  0
M  END
>  <MODEL>
8

>  <REMARK>
 VINA RESULT:      -4.5      1.863      5.769
  Name = bgox31_4_ligand
  5 active torsions:
  status: ('A' for Active; 'I' for Inactive)
    1  A    between atoms: C_1  and  O_2
    2  A    between atoms: O_2  and  C_3
    3  A    between atoms: C_6  and  C_7
    4  A    between atoms: C_7  and  C_9
    5  A    between atoms: C_15  and  O_16
                            x       y       z     vdW  Elec       q    Type
                         _______ _______ _______ _____ _____    ______ ____

>  <TORSDO>
F 4

$$$$
bgox31_4_ligand
 OpenBabel10092621243D

 18 19  0  0  0  0  0  0  0  0999 V2000
   -0.5100   -4.4590  -10.8120 C   0  0  0  0  0  0  0  0  0  0  0  0
   -0.3670   -5.0830   -9.6030 C   0  0  0  0  0  3  0  0  0  0  0  0
   -0.6740   -4.3960   -8.3730 C   0  0  0  0  0  3  0  0  0  0  0  0
   -1.0630   -3.0540   -8.4760 C   0  0  0  0  0  0  0  0  0  0  0  0
   -1.2200   -2.4510   -9.7170 C   0  0  0  0  0  0  0  0  0  0  0  0
   -0.9360   -3.1330  -10.9150 C   0  0  0  0  0  3  0  0  0  0  0  0
    0.8250   -6.1540  -11.8360 C   0  0  0  0  0  1  0  0  0  0  0  0
   -0.2350   -5.1680  -11.9550 O   0  0  0  0  0  0  0  0  0  0  0  0
   -1.3400   -2.3530   -7.2100 C   0  0  0  0  0  0  0  0  0  0  0  0
   -2.5060   -1.8500   -7.0810 O   0  0  0  0  0  0  0  0  0  0  0  0
   -0.4770   -2.4060   -6.0270 C   0  0  0  0  0  0  0  0  0  0  0  0
   -0.9530   -3.1370   -4.9310 C   0  0  0  0  0  3  0  0  0  0  0  0
   -0.2010   -3.1440   -3.7350 C   0  0  0  0  0  3  0  0  0  0  0  0
    0.9110   -2.3700   -3.6350 C   0  0  0  0  0  3  0  0  0  0  0  0
    1.3650   -1.5900   -4.6850 C   0  0  0  0  0  3  0  0  0  0  0  0
    0.6530   -1.5740   -5.9010 C   0  0  0  0  0  3  0  0  0  0  0  0
   -1.6370   -1.1090   -9.7480 O   0  0  0  0  0  0  0  0  0  0  0  0
   -2.6030   -0.8900   -9.7640 H   0  0  0  0  0  0  0  0  0  0  0  0
  1  2  1  0  0  0  0
  2  3  2  0  0  0  0
  4  3  1  0  0  0  0
  4  9  1  0  0  0  0
  5  4  2  0  0  0  0
  6  1  2  0  0  0  0
  6  5  1  0  0  0  0
  8  7  1  0  0  0  0
  8  1  1  0  0  0  0
  9 10  2  0  0  0  0
  9 11  1  0  0  0  0
 11 16  2  0  0  0  0
 11 12  1  0  0  0  0
 12 13  2  0  0  0  0
 13 14  1  0  0  0  0
 15 14  2  0  0  0  0
 16 15  1  0  0  0  0
 17  5  1  0  0  0  0
 18 17  1  0  0  0  0
M  END
>  <MODEL>
9

>  <REMARK>
 VINA RESULT:      -4.5      4.152      6.476
  Name = bgox31_4_ligand
  5 active torsions:
  status: ('A' for Active; 'I' for Inactive)
    1  A    between atoms: C_1  and  O_2
    2  A    between atoms: O_2  and  C_3
    3  A    between atoms: C_6  and  C_7
    4  A    between atoms: C_7  and  C_9
    5  A    between atoms: C_15  and  O_16
                            x       y       z     vdW  Elec       q    Type
                         _______ _______ _______ _____ _____    ______ ____

>  <TORSDO>
F 4

$$$$
