bgox31_5_pose0_reference


 18 19  0  0  0  0  0  0  0  0999 V2000
    6.2265   -0.5404    0.7223 C   0  0  0  0  0  0  0  0  0  0  0  0
    7.3766   -1.2489    0.8736 C   0  0  0  0  0  0  0  0  0  0  0  0
    7.5881   -1.9769    2.0641 C   0  0  0  0  0  0  0  0  0  0  0  0
    6.6783   -1.9932    3.1013 C   0  0  0  0  0  0  0  0  0  0  0  0
    5.5062   -1.2564    2.9502 C   0  0  0  0  0  0  0  0  0  0  0  0
    4.5837   -1.2582    3.9433 O   0  0  0  0  0  0  0  0  0  0  0  0
    5.2788   -0.5180    1.7566 C   0  0  0  0  0  0  0  0  0  0  0  0
    4.7402   -1.7471    4.7272 H   0  0  0  0  0  0  0  0  0  0  0  0
    5.2811    1.2953   -0.7163 C   0  0  0  0  0  0  0  0  0  0  0  0
    6.1660    0.1528   -0.5386 O   0  0  0  0  0  0  0  0  0  0  0  0
    6.9702   -2.7431    4.2992 C   0  0  0  0  0  0  0  0  0  0  0  0
    6.6627   -2.2558    5.3944 O   0  0  0  0  0  0  0  0  0  0  0  0
    7.7283   -4.0317    4.2191 C   0  0  0  0  0  0  0  0  0  0  0  0
    8.9590   -4.2531    4.8123 C   0  0  0  0  0  0  0  0  0  0  0  0
    9.6263   -5.5032    4.6923 C   0  0  0  0  0  0  0  0  0  0  0  0
    9.0852   -6.5465    4.0029 C   0  0  0  0  0  0  0  0  0  0  0  0
    7.8525   -6.3751    3.4197 C   0  0  0  0  0  0  0  0  0  0  0  0
    7.2125   -5.1169    3.5142 C   0  0  0  0  0  0  0  0  0  0  0  0
 10  9  1  0
  1 10  1  0
  2  1  1  0
  3  2  2  0
  4  3  1  0
 11  4  1  0
 12 11  2  0
 13 11  1  0
 14 13  2  0
 15 14  1  0
 16 15  2  0
 17 16  1  0
 18 17  2  0
 18 13  1  0
  5  4  2  0
  6  5  1  0
  7  5  1  0
  7  1  2  0
  6  8  1  0
M  END
> <structure>
bgox31_5

> <pose>
0

> <is_reference>
1

> <rmsd_to_reference_A>
0.000

> <vina_score>


> <minimizedAffinity>
-2.97171

> <minimizedRMSD>
0.68438

> <CNNscore>
0.4060627222

> <CNNaffinity>
3.6733512878

> <CNN_VS>
1.4916110039

> <CNNaffinity_variance>
0.0811540857

$$$$
bgox31_5_pose1


 18 19  0  0  0  0  0  0  0  0999 V2000
    5.0201    0.1736    1.6198 C   0  0  0  0  0  0  0  0  0  0  0  0
    4.0978   -0.4243    2.4186 C   0  0  0  0  0  0  0  0  0  0  0  0
    4.5245   -1.0925    3.5858 C   0  0  0  0  0  0  0  0  0  0  0  0
    5.8508   -1.1803    3.9538 C   0  0  0  0  0  0  0  0  0  0  0  0
    6.7964   -0.5781    3.1274 C   0  0  0  0  0  0  0  0  0  0  0  0
    8.1086   -0.6341    3.4632 O   0  0  0  0  0  0  0  0  0  0  0  0
    6.3817    0.0984    1.9483 C   0  0  0  0  0  0  0  0  0  0  0  0
    8.3741   -1.0820    4.2422 H   0  0  0  0  0  0  0  0  0  0  0  0
    5.2563    1.2283   -0.6527 C   0  0  0  0  0  0  0  0  0  0  0  0
    4.4287    0.8021    0.4670 O   0  0  0  0  0  0  0  0  0  0  0  0
    6.2169   -1.8986    5.1511 C   0  0  0  0  0  0  0  0  0  0  0  0
    6.9041   -2.9213    5.0431 O   0  0  0  0  0  0  0  0  0  0  0  0
    5.6820   -1.4714    6.4830 C   0  0  0  0  0  0  0  0  0  0  0  0
    5.7295   -0.1754    6.9658 C   0  0  0  0  0  0  0  0  0  0  0  0
    5.2046    0.1601    8.2442 C   0  0  0  0  0  0  0  0  0  0  0  0
    4.6164   -0.7695    9.0494 C   0  0  0  0  0  0  0  0  0  0  0  0
    4.5270   -2.0630    8.5948 C   0  0  0  0  0  0  0  0  0  0  0  0
    5.0839   -2.3944    7.3372 C   0  0  0  0  0  0  0  0  0  0  0  0
 10  9  1  0
  1 10  1  0
  2  1  1  0
  3  2  2  0
  4  3  1  0
 11  4  1  0
 12 11  2  0
 13 11  1  0
 14 13  2  0
 15 14  1  0
 16 15  2  0
 17 16  1  0
 18 17  2  0
 18 13  1  0
  5  4  2  0
  6  5  1  0
  7  5  1  0
  7  1  2  0
  6  8  1  0
M  END
> <structure>
bgox31_5

> <pose>
1

> <is_reference>
0

> <rmsd_to_reference_A>
4.194

> <vina_score>
-5.0

> <minimizedAffinity>
-5.14498

> <minimizedRMSD>
0.05930

> <CNNscore>
0.8081496358

> <CNNaffinity>
3.9541537762

> <CNN_VS>
3.1955478191

> <CNNaffinity_variance>
0.3268481195

$$$$
bgox31_5_pose2


 18 19  0  0  0  0  0  0  0  0999 V2000
    5.5921   -1.0263    3.5419 C   0  0  0  0  0  0  0  0  0  0  0  0
    6.7500   -0.6407    2.9430 C   0  0  0  0  0  0  0  0  0  0  0  0
    6.6937    0.1179    1.7547 C   0  0  0  0  0  0  0  0  0  0  0  0
    5.5044    0.4807    1.1555 C   0  0  0  0  0  0  0  0  0  0  0  0
    4.3194    0.0732    1.7624 C   0  0  0  0  0  0  0  0  0  0  0  0
    3.1318    0.4211    1.2092 O   0  0  0  0  0  0  0  0  0  0  0  0
    4.3606   -0.6913    2.9606 C   0  0  0  0  0  0  0  0  0  0  0  0
    3.1125    0.9250    0.4195 H   0  0  0  0  0  0  0  0  0  0  0  0
    5.5333   -1.2396    6.0487 C   0  0  0  0  0  0  0  0  0  0  0  0
    5.8183   -1.7998    4.7351 O   0  0  0  0  0  0  0  0  0  0  0  0
    5.5223    1.2398   -0.0715 C   0  0  0  0  0  0  0  0  0  0  0  0
    4.6453    1.0213   -0.9180 O   0  0  0  0  0  0  0  0  0  0  0  0
    6.6430    2.1913   -0.3565 C   0  0  0  0  0  0  0  0  0  0  0  0
    6.8446    3.3852    0.3128 C   0  0  0  0  0  0  0  0  0  0  0  0
    7.9302    4.2437   -0.0121 C   0  0  0  0  0  0  0  0  0  0  0  0
    8.8309    3.9314   -0.9861 C   0  0  0  0  0  0  0  0  0  0  0  0
    8.6793    2.7419   -1.6581 C   0  0  0  0  0  0  0  0  0  0  0  0
    7.5765    1.9104   -1.3520 C   0  0  0  0  0  0  0  0  0  0  0  0
 10  9  1  0
  1 10  1  0
  2  1  1  0
  3  2  2  0
  4  3  1  0
 11  4  1  0
 12 11  2  0
 13 11  1  0
 14 13  2  0
 15 14  1  0
 16 15  2  0
 17 16  1  0
 18 17  2  0
 18 13  1  0
  5  4  2  0
  6  5  1  0
  7  5  1  0
  7  1  2  0
  6  8  1  0
M  END
> <structure>
bgox31_5

> <pose>
2

> <is_reference>
0

> <rmsd_to_reference_A>
6.576

> <vina_score>
-4.9

> <minimizedAffinity>
-5.11569

> <minimizedRMSD>
0.07344

> <CNNscore>
0.6673344374

> <CNNaffinity>
4.2849087715

> <CNN_VS>
2.8594672680

> <CNNaffinity_variance>
0.0148981772

$$$$
bgox31_5_pose3


 18 19  0  0  0  0  0  0  0  0999 V2000
    5.2430   -0.9673    4.0315 C   0  0  0  0  0  0  0  0  0  0  0  0
    6.5027   -0.8155    3.5436 C   0  0  0  0  0  0  0  0  0  0  0  0
    6.6826   -0.2678    2.2555 C   0  0  0  0  0  0  0  0  0  0  0  0
    5.6280    0.1130    1.4513 C   0  0  0  0  0  0  0  0  0  0  0  0
    4.3378   -0.0549    1.9475 C   0  0  0  0  0  0  0  0  0  0  0  0
    3.2769    0.3191    1.1909 O   0  0  0  0  0  0  0  0  0  0  0  0
    4.1405   -0.6056    3.2437 C   0  0  0  0  0  0  0  0  0  0  0  0
    3.4143    0.6813    0.3377 H   0  0  0  0  0  0  0  0  0  0  0  0
    5.5111   -0.7301    6.5224 C   0  0  0  0  0  0  0  0  0  0  0  0
    5.2277   -1.5453    5.3499 O   0  0  0  0  0  0  0  0  0  0  0  0
    5.8862    0.6467    0.1347 C   0  0  0  0  0  0  0  0  0  0  0  0
    5.4866    1.7871   -0.1321 O   0  0  0  0  0  0  0  0  0  0  0  0
    6.5252   -0.2073   -0.9150 C   0  0  0  0  0  0  0  0  0  0  0  0
    6.8896    0.2418   -2.1731 C   0  0  0  0  0  0  0  0  0  0  0  0
    7.4917   -0.6271   -3.1249 C   0  0  0  0  0  0  0  0  0  0  0  0
    7.7515   -1.9343   -2.8454 C   0  0  0  0  0  0  0  0  0  0  0  0
    7.4274   -2.4135   -1.5985 C   0  0  0  0  0  0  0  0  0  0  0  0
    6.7972   -1.5513   -0.6699 C   0  0  0  0  0  0  0  0  0  0  0  0
 10  9  1  0
  1 10  1  0
  2  1  1  0
  3  2  2  0
  4  3  1  0
 11  4  1  0
 12 11  2  0
 13 11  1  0
 14 13  2  0
 15 14  1  0
 16 15  2  0
 17 16  1  0
 18 17  2  0
 18 13  1  0
  5  4  2  0
  6  5  1  0
  7  5  1  0
  7  1  2  0
  6  8  1  0
M  END
> <structure>
bgox31_5

> <pose>
3

> <is_reference>
0

> <rmsd_to_reference_A>
5.621

> <vina_score>
-4.7

> <minimizedAffinity>
-5.19479

> <minimizedRMSD>
0.17173

> <CNNscore>
0.5536438227

> <CNNaffinity>
3.9583332539

> <CNN_VS>
2.1915068626

> <CNNaffinity_variance>
0.0935766175

$$$$
bgox31_5_pose4


 18 19  0  0  0  0  0  0  0  0999 V2000
    8.8679    3.6748   -0.8315 C   0  0  0  0  0  0  0  0  0  0  0  0
    7.9847    3.9561    0.1632 C   0  0  0  0  0  0  0  0  0  0  0  0
    6.8725    3.1096    0.3585 C   0  0  0  0  0  0  0  0  0  0  0  0
    6.6271    2.0039   -0.4302 C   0  0  0  0  0  0  0  0  0  0  0  0
    7.5262    1.7248   -1.4565 C   0  0  0  0  0  0  0  0  0  0  0  0
    7.3248    0.6401   -2.2439 O   0  0  0  0  0  0  0  0  0  0  0  0
    8.6518    2.5683   -1.6655 C   0  0  0  0  0  0  0  0  0  0  0  0
    6.5809    0.0887   -2.1005 H   0  0  0  0  0  0  0  0  0  0  0  0
    9.6846    5.9966   -1.3550 C   0  0  0  0  0  0  0  0  0  0  0  0
    9.9385    4.6345   -0.9073 O   0  0  0  0  0  0  0  0  0  0  0  0
    5.4574    1.1941   -0.1854 C   0  0  0  0  0  0  0  0  0  0  0  0
    4.5119    1.2635   -0.9808 O   0  0  0  0  0  0  0  0  0  0  0  0
    5.3522    0.3744    1.0624 C   0  0  0  0  0  0  0  0  0  0  0  0
    6.4286   -0.2035    1.7121 C   0  0  0  0  0  0  0  0  0  0  0  0
    6.2556   -0.9747    2.8947 C   0  0  0  0  0  0  0  0  0  0  0  0
    5.0285   -1.1712    3.4544 C   0  0  0  0  0  0  0  0  0  0  0  0
    3.9357   -0.5920    2.8536 C   0  0  0  0  0  0  0  0  0  0  0  0
    4.1142    0.1428    1.6575 C   0  0  0  0  0  0  0  0  0  0  0  0
 10  9  1  0
  1 10  1  0
  2  1  1  0
  3  2  2  0
  4  3  1  0
 11  4  1  0
 12 11  2  0
 13 11  1  0
 14 13  2  0
 15 14  1  0
 16 15  2  0
 17 16  1  0
 18 17  2  0
 18 13  1  0
  5  4  2  0
  6  5  1  0
  7  5  1  0
  7  1  2  0
  6  8  1  0
M  END
> <structure>
bgox31_5

> <pose>
4

> <is_reference>
0

> <rmsd_to_reference_A>
5.802

> <vina_score>
-4.7

> <minimizedAffinity>
-4.87791

> <minimizedRMSD>
0.13346

> <CNNscore>
0.6346964240

> <CNNaffinity>
4.2106604576

> <CNN_VS>
2.6724910736

> <CNNaffinity_variance>
0.0197987948

$$$$
bgox31_5_pose5


 18 19  0  0  0  0  0  0  0  0999 V2000
    8.4917    1.4005   -2.2785 C   0  0  0  0  0  0  0  0  0  0  0  0
    7.9060    0.1747   -2.2247 C   0  0  0  0  0  0  0  0  0  0  0  0
    6.8128   -0.0313   -1.3563 C   0  0  0  0  0  0  0  0  0  0  0  0
    6.3114    0.9598   -0.5387 C   0  0  0  0  0  0  0  0  0  0  0  0
    6.9203    2.2115   -0.5846 C   0  0  0  0  0  0  0  0  0  0  0  0
    6.4480    3.2137    0.1963 O   0  0  0  0  0  0  0  0  0  0  0  0
    8.0227    2.4349   -1.4551 C   0  0  0  0  0  0  0  0  0  0  0  0
    5.7215    3.0598    0.7676 H   0  0  0  0  0  0  0  0  0  0  0  0
    9.6479    0.5434   -4.3428 C   0  0  0  0  0  0  0  0  0  0  0  0
    9.5962    1.4460   -3.2024 O   0  0  0  0  0  0  0  0  0  0  0  0
    5.2037    0.6723    0.3404 C   0  0  0  0  0  0  0  0  0  0  0  0
    4.0670    1.0179   -0.0045 O   0  0  0  0  0  0  0  0  0  0  0  0
    5.4453    0.0681    1.6891 C   0  0  0  0  0  0  0  0  0  0  0  0
    6.6819    0.0023    2.3065 C   0  0  0  0  0  0  0  0  0  0  0  0
    6.8405   -0.5896    3.5899 C   0  0  0  0  0  0  0  0  0  0  0  0
    5.7859   -1.1080    4.2794 C   0  0  0  0  0  0  0  0  0  0  0  0
    4.5367   -1.0409    3.7117 C   0  0  0  0  0  0  0  0  0  0  0  0
    4.3945   -0.4817    2.4200 C   0  0  0  0  0  0  0  0  0  0  0  0
 10  9  1  0
  1 10  1  0
  2  1  1  0
  3  2  2  0
  4  3  1  0
 11  4  1  0
 12 11  2  0
 13 11  1  0
 14 13  2  0
 15 14  1  0
 16 15  2  0
 17 16  1  0
 18 17  2  0
 18 13  1  0
  5  4  2  0
  6  5  1  0
  7  5  1  0
  7  1  2  0
  6  8  1  0
M  END
> <structure>
bgox31_5

> <pose>
5

> <is_reference>
0

> <rmsd_to_reference_A>
5.166

> <vina_score>
-4.6

> <minimizedAffinity>
-4.88292

> <minimizedRMSD>
0.43211

> <CNNscore>
0.5678014755

> <CNNaffinity>
3.7062170506

> <CNN_VS>
2.1043956280

> <CNNaffinity_variance>
0.2172762156

$$$$
bgox31_5_pose6


 18 19  0  0  0  0  0  0  0  0999 V2000
    8.2761    2.9284   -1.4028 C   0  0  0  0  0  0  0  0  0  0  0  0
    7.6287    3.4445   -0.3252 C   0  0  0  0  0  0  0  0  0  0  0  0
    6.6020    2.6951    0.2885 C   0  0  0  0  0  0  0  0  0  0  0  0
    6.2093    1.4533   -0.1675 C   0  0  0  0  0  0  0  0  0  0  0  0
    6.8649    0.9313   -1.2797 C   0  0  0  0  0  0  0  0  0  0  0  0
    6.5143   -0.2914   -1.7483 O   0  0  0  0  0  0  0  0  0  0  0  0
    7.9012    1.6745   -1.9081 C   0  0  0  0  0  0  0  0  0  0  0  0
    5.8302   -0.7753   -1.3289 H   0  0  0  0  0  0  0  0  0  0  0  0
    8.9414    4.8613   -2.8700 C   0  0  0  0  0  0  0  0  0  0  0  0
    9.2869    3.8158   -1.9177 O   0  0  0  0  0  0  0  0  0  0  0  0
    5.1363    0.7524    0.4965 C   0  0  0  0  0  0  0  0  0  0  0  0
    4.0040    0.7921   -0.0005 O   0  0  0  0  0  0  0  0  0  0  0  0
    5.3719    0.0844    1.8158 C   0  0  0  0  0  0  0  0  0  0  0  0
    4.3684   -0.3874    2.6436 C   0  0  0  0  0  0  0  0  0  0  0  0
    4.6636   -1.0087    3.8884 C   0  0  0  0  0  0  0  0  0  0  0  0
    5.9435   -1.1837    4.3210 C   0  0  0  0  0  0  0  0  0  0  0  0
    6.9705   -0.7511    3.5169 C   0  0  0  0  0  0  0  0  0  0  0  0
    6.6658   -0.1020    2.2968 C   0  0  0  0  0  0  0  0  0  0  0  0
 10  9  1  0
  1 10  1  0
  2  1  1  0
  3  2  2  0
  4  3  1  0
 11  4  1  0
 12 11  2  0
 13 11  1  0
 14 13  2  0
 15 14  1  0
 16 15  2  0
 17 16  1  0
 18 17  2  0
 18 13  1  0
  5  4  2  0
  6  5  1  0
  7  5  1  0
  7  1  2  0
  6  8  1  0
M  END
> <structure>
bgox31_5

> <pose>
6

> <is_reference>
0

> <rmsd_to_reference_A>
5.097

> <vina_score>
-4.6

> <minimizedAffinity>
-4.87699

> <minimizedRMSD>
0.16958

> <CNNscore>
0.4443622231

> <CNNaffinity>
3.8772938251

> <CNN_VS>
1.7229229212

> <CNNaffinity_variance>
0.1292030662

$$$$
bgox31_5_pose7


 18 19  0  0  0  0  0  0  0  0999 V2000
    8.0341    4.3898    0.5862 C   0  0  0  0  0  0  0  0  0  0  0  0
    8.7943    3.5993    1.3900 C   0  0  0  0  0  0  0  0  0  0  0  0
    8.4719    2.2313    1.5193 C   0  0  0  0  0  0  0  0  0  0  0  0
    7.3998    1.6528    0.8711 C   0  0  0  0  0  0  0  0  0  0  0  0
    6.6137    2.4653    0.0579 C   0  0  0  0  0  0  0  0  0  0  0  0
    5.5598    1.9288   -0.6039 O   0  0  0  0  0  0  0  0  0  0  0  0
    6.9263    3.8452   -0.0816 C   0  0  0  0  0  0  0  0  0  0  0  0
    5.3599    1.0185   -0.5070 H   0  0  0  0  0  0  0  0  0  0  0  0
    8.9602    6.3981    1.7860 C   0  0  0  0  0  0  0  0  0  0  0  0
    8.4855    5.7566    0.5682 O   0  0  0  0  0  0  0  0  0  0  0  0
    7.1162    0.2507    1.0671 C   0  0  0  0  0  0  0  0  0  0  0  0
    7.4069   -0.5452    0.1648 O   0  0  0  0  0  0  0  0  0  0  0  0
    6.3849   -0.2092    2.2897 C   0  0  0  0  0  0  0  0  0  0  0  0
    6.9979   -0.5940    3.4690 C   0  0  0  0  0  0  0  0  0  0  0  0
    6.2400   -1.0257    4.5923 C   0  0  0  0  0  0  0  0  0  0  0  0
    4.8791   -1.0692    4.5714 C   0  0  0  0  0  0  0  0  0  0  0  0
    4.2306   -0.6713    3.4264 C   0  0  0  0  0  0  0  0  0  0  0  0
    4.9935   -0.2780    2.3010 C   0  0  0  0  0  0  0  0  0  0  0  0
 10  9  1  0
  1 10  1  0
  2  1  1  0
  3  2  2  0
  4  3  1  0
 11  4  1  0
 12 11  2  0
 13 11  1  0
 14 13  2  0
 15 14  1  0
 16 15  2  0
 17 16  1  0
 18 17  2  0
 18 13  1  0
  5  4  2  0
  6  5  1  0
  7  5  1  0
  7  1  2  0
  6  8  1  0
M  END
> <structure>
bgox31_5

> <pose>
7

> <is_reference>
0

> <rmsd_to_reference_A>
5.056

> <vina_score>
-4.3

> <minimizedAffinity>
-4.45925

> <minimizedRMSD>
0.14139

> <CNNscore>
0.5655748248

> <CNNaffinity>
4.2741036415

> <CNN_VS>
2.4173254967

> <CNNaffinity_variance>
0.0018806331

$$$$
bgox31_5_pose8


 18 19  0  0  0  0  0  0  0  0999 V2000
    4.9491   -3.9918    9.9912 C   0  0  0  0  0  0  0  0  0  0  0  0
    4.2571   -4.1050    8.8266 C   0  0  0  0  0  0  0  0  0  0  0  0
    4.3400   -3.0704    7.8696 C   0  0  0  0  0  0  0  0  0  0  0  0
    5.0894   -1.9287    8.0679 C   0  0  0  0  0  0  0  0  0  0  0  0
    5.7876   -1.8084    9.2668 C   0  0  0  0  0  0  0  0  0  0  0  0
    6.5435   -0.7065    9.4913 O   0  0  0  0  0  0  0  0  0  0  0  0
    5.7131   -2.8426   10.2402 C   0  0  0  0  0  0  0  0  0  0  0  0
    6.5878   -0.0292    8.8454 H   0  0  0  0  0  0  0  0  0  0  0  0
    3.6297   -6.0267   10.6636 C   0  0  0  0  0  0  0  0  0  0  0  0
    4.7527   -5.1210   10.8628 O   0  0  0  0  0  0  0  0  0  0  0  0
    5.1119   -0.9015    7.0542 C   0  0  0  0  0  0  0  0  0  0  0  0
    4.7315    0.2367    7.3543 O   0  0  0  0  0  0  0  0  0  0  0  0
    5.4838   -1.2387    5.6439 C   0  0  0  0  0  0  0  0  0  0  0  0
    4.7376   -0.8868    4.5327 C   0  0  0  0  0  0  0  0  0  0  0  0
    5.1487   -1.2440    3.2190 C   0  0  0  0  0  0  0  0  0  0  0  0
    6.3000   -1.9343    2.9863 C   0  0  0  0  0  0  0  0  0  0  0  0
    7.0825   -2.2813    4.0620 C   0  0  0  0  0  0  0  0  0  0  0  0
    6.6473   -1.9537    5.3674 C   0  0  0  0  0  0  0  0  0  0  0  0
 10  9  1  0
  1 10  1  0
  2  1  1  0
  3  2  2  0
  4  3  1  0
 11  4  1  0
 12 11  2  0
 13 11  1  0
 14 13  2  0
 15 14  1  0
 16 15  2  0
 17 16  1  0
 18 17  2  0
 18 13  1  0
  5  4  2  0
  6  5  1  0
  7  5  1  0
  7  1  2  0
  6  8  1  0
M  END
> <structure>
bgox31_5

> <pose>
8

> <is_reference>
0

> <rmsd_to_reference_A>
7.360

> <vina_score>
-4.3

> <minimizedAffinity>
-4.40209

> <minimizedRMSD>
0.10797

> <CNNscore>
0.6949613690

> <CNNaffinity>
4.0260643959

> <CNN_VS>
2.7979593277

> <CNNaffinity_variance>
0.1245094165

$$$$
bgox31_5_pose9


 18 19  0  0  0  0  0  0  0  0999 V2000
    7.8832    3.3159    0.6641 C   0  0  0  0  0  0  0  0  0  0  0  0
    8.1695    2.5281    1.7337 C   0  0  0  0  0  0  0  0  0  0  0  0
    7.4032    1.3642    1.9585 C   0  0  0  0  0  0  0  0  0  0  0  0
    6.3555    0.9895    1.1429 C   0  0  0  0  0  0  0  0  0  0  0  0
    6.0554    1.8058    0.0545 C   0  0  0  0  0  0  0  0  0  0  0  0
    5.0405    1.4638   -0.7760 O   0  0  0  0  0  0  0  0  0  0  0  0
    6.8179    2.9815   -0.1845 C   0  0  0  0  0  0  0  0  0  0  0  0
    4.5424    0.6873   -0.6120 H   0  0  0  0  0  0  0  0  0  0  0  0
    8.1959    5.8134    0.6442 C   0  0  0  0  0  0  0  0  0  0  0  0
    8.7452    4.4670    0.5795 O   0  0  0  0  0  0  0  0  0  0  0  0
    5.6017   -0.2026    1.4454 C   0  0  0  0  0  0  0  0  0  0  0  0
    4.4133   -0.0879    1.7720 O   0  0  0  0  0  0  0  0  0  0  0  0
    6.2769   -1.5394    1.4698 C   0  0  0  0  0  0  0  0  0  0  0  0
    6.7478   -2.1980    0.3468 C   0  0  0  0  0  0  0  0  0  0  0  0
    7.3768   -3.4693    0.4421 C   0  0  0  0  0  0  0  0  0  0  0  0
    7.5606   -4.0955    1.6386 C   0  0  0  0  0  0  0  0  0  0  0  0
    7.1294   -3.4626    2.7794 C   0  0  0  0  0  0  0  0  0  0  0  0
    6.4724   -2.2145    2.6715 C   0  0  0  0  0  0  0  0  0  0  0  0
 10  9  1  0
  1 10  1  0
  2  1  1  0
  3  2  2  0
  4  3  1  0
 11  4  1  0
 12 11  2  0
 13 11  1  0
 14 13  2  0
 15 14  1  0
 16 15  2  0
 17 16  1  0
 18 17  2  0
 18 13  1  0
  5  4  2  0
  6  5  1  0
  7  5  1  0
  7  1  2  0
  6  8  1  0
M  END
> <structure>
bgox31_5

> <pose>
9

> <is_reference>
0

> <rmsd_to_reference_A>
4.064

> <vina_score>
-4.3

> <minimizedAffinity>
-4.44004

> <minimizedRMSD>
0.12689

> <CNNscore>
0.2432224452

> <CNNaffinity>
3.3421390057

> <CNN_VS>
0.8128831983

> <CNNaffinity_variance>
0.3196446896

$$$$
