bgox31_3_pose0_reference


 18 19  0  0  0  0  0  0  0  0999 V2000
   -0.3843   -0.0447   -8.4911 C   0  0  0  0  0  0  0  0  0  0  0  0
   -1.6853    0.3466   -8.3149 C   0  0  0  0  0  0  0  0  0  0  0  0
   -2.1179    0.8042   -7.0754 C   0  0  0  0  0  0  0  0  0  0  0  0
   -1.2630    0.9280   -6.0144 C   0  0  0  0  0  0  0  0  0  0  0  0
    0.0756    0.5432   -6.2151 C   0  0  0  0  0  0  0  0  0  0  0  0
    0.8914    0.6121   -5.0888 O   0  0  0  0  0  0  0  0  0  0  0  0
    0.5088    0.0596   -7.3998 C   0  0  0  0  0  0  0  0  0  0  0  0
    0.5525    0.9545   -4.2851 H   0  0  0  0  0  0  0  0  0  0  0  0
    1.1263   -1.3700   -9.8509 C   0  0  0  0  0  0  0  0  0  0  0  0
    0.0328   -0.5022   -9.7544 O   0  0  0  0  0  0  0  0  0  0  0  0
   -1.7256    1.3961   -4.6659 C   0  0  0  0  0  0  0  0  0  0  0  0
   -1.8825    0.5810   -3.7679 O   0  0  0  0  0  0  0  0  0  0  0  0
   -2.0247    2.8419   -4.3714 C   0  0  0  0  0  0  0  0  0  0  0  0
   -2.9816    3.1539   -3.4414 C   0  0  0  0  0  0  0  0  0  0  0  0
   -3.2597    4.4772   -3.2090 C   0  0  0  0  0  0  0  0  0  0  0  0
   -2.5044    5.4386   -3.7974 C   0  0  0  0  0  0  0  0  0  0  0  0
   -1.4584    5.1376   -4.6994 C   0  0  0  0  0  0  0  0  0  0  0  0
   -1.2698    3.7976   -4.9900 C   0  0  0  0  0  0  0  0  0  0  0  0
 10  9  1  0
  1 10  1  0
  2  1  1  0
  3  2  2  0
  4  3  1  0
 11  4  1  0
 12 11  2  0
 13 11  1  0
 14 13  2  0
 15 14  1  0
 16 15  2  0
 17 16  1  0
 18 17  2  0
 18 13  1  0
  5  4  2  0
  6  5  1  0
  7  5  1  0
  7  1  2  0
  6  8  1  0
M  END
> <structure>
bgox31_3

> <pose>
0

> <is_reference>
1

> <rmsd_to_reference_A>
0.000

> <vina_score>


> <minimizedAffinity>
-6.91853

> <minimizedRMSD>
0.59079

> <CNNscore>
0.7959805131

> <CNNaffinity>
4.4366154671

> <CNN_VS>
3.5314595699

> <CNNaffinity_variance>
0.5813381672

$$$$
bgox31_3_pose1


 18 19  0  0  0  0  0  0  0  0999 V2000
   -0.5689    0.1699  -10.5426 C   0  0  0  0  0  0  0  0  0  0  0  0
   -1.6509    0.1299   -9.7029 C   0  0  0  0  0  0  0  0  0  0  0  0
   -1.4781    0.2553   -8.3291 C   0  0  0  0  0  0  0  0  0  0  0  0
   -0.2453    0.4728   -7.7757 C   0  0  0  0  0  0  0  0  0  0  0  0
    0.8548    0.5331   -8.6502 C   0  0  0  0  0  0  0  0  0  0  0  0
    2.0971    0.6771   -8.0383 O   0  0  0  0  0  0  0  0  0  0  0  0
    0.7148    0.3753   -9.9851 C   0  0  0  0  0  0  0  0  0  0  0  0
    2.1521    0.7844   -7.1091 H   0  0  0  0  0  0  0  0  0  0  0  0
   -1.0081    1.1839  -12.7022 C   0  0  0  0  0  0  0  0  0  0  0  0
   -0.7666    0.0426  -11.9295 O   0  0  0  0  0  0  0  0  0  0  0  0
   -0.0451    0.5835   -6.2929 C   0  0  0  0  0  0  0  0  0  0  0  0
    0.8629   -0.0394   -5.7606 O   0  0  0  0  0  0  0  0  0  0  0  0
   -0.9331    1.4275   -5.4176 C   0  0  0  0  0  0  0  0  0  0  0  0
   -1.0685    2.7641   -5.6880 C   0  0  0  0  0  0  0  0  0  0  0  0
   -1.8603    3.5213   -4.8618 C   0  0  0  0  0  0  0  0  0  0  0  0
   -2.5865    2.9193   -3.8869 C   0  0  0  0  0  0  0  0  0  0  0  0
   -2.5250    1.5285   -3.6415 C   0  0  0  0  0  0  0  0  0  0  0  0
   -1.6408    0.8089   -4.4267 C   0  0  0  0  0  0  0  0  0  0  0  0
 10  9  1  0
  1 10  1  0
  2  1  1  0
  3  2  2  0
  4  3  1  0
 11  4  1  0
 12 11  2  0
 13 11  1  0
 14 13  2  0
 15 14  1  0
 16 15  2  0
 17 16  1  0
 18 17  2  0
 18 13  1  0
  5  4  2  0
  6  5  1  0
  7  5  1  0
  7  1  2  0
  6  8  1  0
M  END
> <structure>
bgox31_3

> <pose>
1

> <is_reference>
0

> <rmsd_to_reference_A>
2.255

> <vina_score>
-7.4

> <minimizedAffinity>
-7.61113

> <minimizedRMSD>
0.04013

> <CNNscore>
0.7287305593

> <CNNaffinity>
4.1871151924

> <CNN_VS>
3.0512788296

> <CNNaffinity_variance>
0.3350815475

$$$$
bgox31_3_pose2


 18 19  0  0  0  0  0  0  0  0999 V2000
   -2.8169    4.0470   -3.9661 C   0  0  0  0  0  0  0  0  0  0  0  0
   -1.9073    4.2737   -4.9659 C   0  0  0  0  0  0  0  0  0  0  0  0
   -1.1882    3.2174   -5.5119 C   0  0  0  0  0  0  0  0  0  0  0  0
   -1.3927    1.9238   -5.1153 C   0  0  0  0  0  0  0  0  0  0  0  0
   -2.3442    1.7026   -4.1030 C   0  0  0  0  0  0  0  0  0  0  0  0
   -2.4636    0.3824   -3.6757 O   0  0  0  0  0  0  0  0  0  0  0  0
   -3.0270    2.7183   -3.5309 C   0  0  0  0  0  0  0  0  0  0  0  0
   -1.9721   -0.2935   -4.0995 H   0  0  0  0  0  0  0  0  0  0  0  0
   -4.4302    4.9135   -2.3750 C   0  0  0  0  0  0  0  0  0  0  0  0
   -3.5363    5.1294   -3.4289 O   0  0  0  0  0  0  0  0  0  0  0  0
   -0.6027    0.7801   -5.6793 C   0  0  0  0  0  0  0  0  0  0  0  0
   -0.0227    0.0176   -4.9200 O   0  0  0  0  0  0  0  0  0  0  0  0
   -0.4775    0.5382   -7.1602 C   0  0  0  0  0  0  0  0  0  0  0  0
   -1.6110    0.4563   -7.9259 C   0  0  0  0  0  0  0  0  0  0  0  0
   -1.4758    0.2051   -9.2679 C   0  0  0  0  0  0  0  0  0  0  0  0
   -0.2406    0.1746   -9.8277 C   0  0  0  0  0  0  0  0  0  0  0  0
    0.9410    0.3368   -9.0696 C   0  0  0  0  0  0  0  0  0  0  0  0
    0.7751    0.4870   -7.7041 C   0  0  0  0  0  0  0  0  0  0  0  0
 10  9  1  0
  1 10  1  0
  2  1  1  0
  3  2  2  0
  4  3  1  0
 11  4  1  0
 12 11  2  0
 13 11  1  0
 14 13  2  0
 15 14  1  0
 16 15  2  0
 17 16  1  0
 18 17  2  0
 18 13  1  0
  5  4  2  0
  6  5  1  0
  7  5  1  0
  7  1  2  0
  6  8  1  0
M  END
> <structure>
bgox31_3

> <pose>
2

> <is_reference>
0

> <rmsd_to_reference_A>
5.971

> <vina_score>
-7.1

> <minimizedAffinity>
-7.29646

> <minimizedRMSD>
0.11995

> <CNNscore>
0.7001295686

> <CNNaffinity>
3.9146842957

> <CNN_VS>
2.7407863140

> <CNNaffinity_variance>
0.3420157135

$$$$
bgox31_3_pose3


 18 19  0  0  0  0  0  0  0  0999 V2000
   -0.0682    0.0717   -8.3869 C   0  0  0  0  0  0  0  0  0  0  0  0
   -1.3899    0.4329   -8.3910 C   0  0  0  0  0  0  0  0  0  0  0  0
   -2.0036    0.8582   -7.2196 C   0  0  0  0  0  0  0  0  0  0  0  0
   -1.3116    0.9801   -6.0456 C   0  0  0  0  0  0  0  0  0  0  0  0
    0.0504    0.6265   -6.0597 C   0  0  0  0  0  0  0  0  0  0  0  0
    0.6970    0.6907   -4.8272 O   0  0  0  0  0  0  0  0  0  0  0  0
    0.6581    0.1742   -7.1779 C   0  0  0  0  0  0  0  0  0  0  0  0
    0.2401    1.0110   -4.0745 H   0  0  0  0  0  0  0  0  0  0  0  0
    1.7465   -1.0525   -9.5415 C   0  0  0  0  0  0  0  0  0  0  0  0
    0.5347   -0.3537   -9.5850 O   0  0  0  0  0  0  0  0  0  0  0  0
   -1.9712    1.4136   -4.7697 C   0  0  0  0  0  0  0  0  0  0  0  0
   -2.4288    0.5689   -4.0125 O   0  0  0  0  0  0  0  0  0  0  0  0
   -2.1102    2.8619   -4.3839 C   0  0  0  0  0  0  0  0  0  0  0  0
   -2.9529    3.2053   -3.3587 C   0  0  0  0  0  0  0  0  0  0  0  0
   -3.0874    4.5340   -3.0418 C   0  0  0  0  0  0  0  0  0  0  0  0
   -2.2997    5.4559   -3.6503 C   0  0  0  0  0  0  0  0  0  0  0  0
   -1.3657    5.1136   -4.6547 C   0  0  0  0  0  0  0  0  0  0  0  0
   -1.3258    3.7799   -5.0225 C   0  0  0  0  0  0  0  0  0  0  0  0
 10  9  1  0
  1 10  1  0
  2  1  1  0
  3  2  2  0
  4  3  1  0
 11  4  1  0
 12 11  2  0
 13 11  1  0
 14 13  2  0
 15 14  1  0
 16 15  2  0
 17 16  1  0
 18 17  2  0
 18 13  1  0
  5  4  2  0
  6  5  1  0
  7  5  1  0
  7  1  2  0
  6  8  1  0
M  END
> <structure>
bgox31_3

> <pose>
3

> <is_reference>
0

> <rmsd_to_reference_A>
0.773

> <vina_score>
-7.0

> <minimizedAffinity>
-7.12800

> <minimizedRMSD>
0.09111

> <CNNscore>
0.8016031384

> <CNNaffinity>
4.4154706001

> <CNN_VS>
3.5394551754

> <CNNaffinity_variance>
0.5616500378

$$$$
bgox31_3_pose4


 18 19  0  0  0  0  0  0  0  0999 V2000
    1.2176   -0.1782   -6.9563 C   0  0  0  0  0  0  0  0  0  0  0  0
    1.3311   -0.1182   -5.5925 C   0  0  0  0  0  0  0  0  0  0  0  0
    0.2963    0.4047   -4.8257 C   0  0  0  0  0  0  0  0  0  0  0  0
   -0.8766    0.8260   -5.3895 C   0  0  0  0  0  0  0  0  0  0  0  0
   -0.9890    0.7388   -6.7891 C   0  0  0  0  0  0  0  0  0  0  0  0
   -2.1675    1.2493   -7.3266 O   0  0  0  0  0  0  0  0  0  0  0  0
    0.0192    0.2690   -7.5576 C   0  0  0  0  0  0  0  0  0  0  0  0
   -2.8428    1.5654   -6.7591 H   0  0  0  0  0  0  0  0  0  0  0  0
    2.1923   -0.7266   -9.1096 C   0  0  0  0  0  0  0  0  0  0  0  0
    2.2763   -0.7143   -7.7129 O   0  0  0  0  0  0  0  0  0  0  0  0
   -1.9895    1.4159   -4.5728 C   0  0  0  0  0  0  0  0  0  0  0  0
   -2.8905    0.6920   -4.1739 O   0  0  0  0  0  0  0  0  0  0  0  0
   -2.0530    2.8812   -4.2346 C   0  0  0  0  0  0  0  0  0  0  0  0
   -1.2685    3.7653   -4.9271 C   0  0  0  0  0  0  0  0  0  0  0  0
   -1.3197    5.0926   -4.5834 C   0  0  0  0  0  0  0  0  0  0  0  0
   -2.2276    5.5181   -3.6687 C   0  0  0  0  0  0  0  0  0  0  0  0
   -3.1031    4.6337   -2.9998 C   0  0  0  0  0  0  0  0  0  0  0  0
   -2.9574    3.2889   -3.2945 C   0  0  0  0  0  0  0  0  0  0  0  0
 10  9  1  0
  1 10  1  0
  2  1  1  0
  3  2  2  0
  4  3  1  0
 11  4  1  0
 12 11  2  0
 13 11  1  0
 14 13  2  0
 15 14  1  0
 16 15  2  0
 17 16  1  0
 18 17  2  0
 18 13  1  0
  5  4  2  0
  6  5  1  0
  7  5  1  0
  7  1  2  0
  6  8  1  0
M  END
> <structure>
bgox31_3

> <pose>
4

> <is_reference>
0

> <rmsd_to_reference_A>
2.039

> <vina_score>
-6.8

> <minimizedAffinity>
-7.07991

> <minimizedRMSD>
0.11766

> <CNNscore>
0.7308701873

> <CNNaffinity>
4.2842450142

> <CNN_VS>
3.1312270164

> <CNNaffinity_variance>
0.5051395297

$$$$
bgox31_3_pose5


 18 19  0  0  0  0  0  0  0  0999 V2000
    0.5622   -0.8820   -2.5664 C   0  0  0  0  0  0  0  0  0  0  0  0
    1.5200   -0.5316   -3.4806 C   0  0  0  0  0  0  0  0  0  0  0  0
    1.1759    0.1992   -4.6122 C   0  0  0  0  0  0  0  0  0  0  0  0
   -0.1038    0.6325   -4.8283 C   0  0  0  0  0  0  0  0  0  0  0  0
   -1.0743    0.2841   -3.8703 C   0  0  0  0  0  0  0  0  0  0  0  0
   -2.3757    0.6789   -4.1691 O   0  0  0  0  0  0  0  0  0  0  0  0
   -0.7695   -0.4574   -2.7832 C   0  0  0  0  0  0  0  0  0  0  0  0
   -2.5453    1.1934   -4.9336 H   0  0  0  0  0  0  0  0  0  0  0  0
    2.0503   -1.2289   -0.6821 C   0  0  0  0  0  0  0  0  0  0  0  0
    0.9322   -1.6197   -1.4272 O   0  0  0  0  0  0  0  0  0  0  0  0
   -0.4900    1.3996   -6.0584 C   0  0  0  0  0  0  0  0  0  0  0  0
   -0.9390    2.5314   -5.9453 O   0  0  0  0  0  0  0  0  0  0  0  0
   -0.3644    0.8219   -7.4432 C   0  0  0  0  0  0  0  0  0  0  0  0
   -1.4979    0.5206   -8.1513 C   0  0  0  0  0  0  0  0  0  0  0  0
   -1.3617   -0.0325   -9.3999 C   0  0  0  0  0  0  0  0  0  0  0  0
   -0.1291   -0.1481   -9.9542 C   0  0  0  0  0  0  0  0  0  0  0  0
    1.0505    0.2311   -9.2733 C   0  0  0  0  0  0  0  0  0  0  0  0
    0.8860    0.6908   -7.9777 C   0  0  0  0  0  0  0  0  0  0  0  0
 10  9  1  0
  1 10  1  0
  2  1  1  0
  3  2  2  0
  4  3  1  0
 11  4  1  0
 12 11  2  0
 13 11  1  0
 14 13  2  0
 15 14  1  0
 16 15  2  0
 17 16  1  0
 18 17  2  0
 18 13  1  0
  5  4  2  0
  6  5  1  0
  7  5  1  0
  7  1  2  0
  6  8  1  0
M  END
> <structure>
bgox31_3

> <pose>
5

> <is_reference>
0

> <rmsd_to_reference_A>
5.704

> <vina_score>
-6.5

> <minimizedAffinity>
-6.78750

> <minimizedRMSD>
0.14908

> <CNNscore>
0.6943190098

> <CNNaffinity>
3.8374221325

> <CNN_VS>
2.6643950939

> <CNNaffinity_variance>
0.5270722508

$$$$
bgox31_3_pose6


 18 19  0  0  0  0  0  0  0  0999 V2000
    2.6553   -1.4288    1.6777 C   0  0  0  0  0  0  0  0  0  0  0  0
    2.8291   -0.2482    1.0053 C   0  0  0  0  0  0  0  0  0  0  0  0
    2.6878   -0.2013   -0.3770 C   0  0  0  0  0  0  0  0  0  0  0  0
    2.3249   -1.3027   -1.1028 C   0  0  0  0  0  0  0  0  0  0  0  0
    2.1280   -2.5044   -0.3966 C   0  0  0  0  0  0  0  0  0  0  0  0
    1.8373   -3.6165   -1.1821 O   0  0  0  0  0  0  0  0  0  0  0  0
    2.2973   -2.5820    0.9416 C   0  0  0  0  0  0  0  0  0  0  0  0
    1.7272   -3.5205   -2.1077 H   0  0  0  0  0  0  0  0  0  0  0  0
    2.5157   -2.6269    3.7829 C   0  0  0  0  0  0  0  0  0  0  0  0
    2.8006   -1.4528    3.0762 O   0  0  0  0  0  0  0  0  0  0  0  0
    2.1951   -1.2690   -2.5971 C   0  0  0  0  0  0  0  0  0  0  0  0
    3.0423   -1.8192   -3.2872 O   0  0  0  0  0  0  0  0  0  0  0  0
    1.0619   -0.5638   -3.2940 C   0  0  0  0  0  0  0  0  0  0  0  0
    1.2649   -0.0370   -4.5422 C   0  0  0  0  0  0  0  0  0  0  0  0
    0.2279    0.6264   -5.1483 C   0  0  0  0  0  0  0  0  0  0  0  0
   -0.9974    0.6357   -4.5667 C   0  0  0  0  0  0  0  0  0  0  0  0
   -1.2495    0.0289   -3.3150 C   0  0  0  0  0  0  0  0  0  0  0  0
   -0.1593   -0.5444   -2.6834 C   0  0  0  0  0  0  0  0  0  0  0  0
 10  9  1  0
  1 10  1  0
  2  1  1  0
  3  2  2  0
  4  3  1  0
 11  4  1  0
 12 11  2  0
 13 11  1  0
 14 13  2  0
 15 14  1  0
 16 15  2  0
 17 16  1  0
 18 17  2  0
 18 13  1  0
  5  4  2  0
  6  5  1  0
  7  5  1  0
  7  1  2  0
  6  8  1  0
M  END
> <structure>
bgox31_3

> <pose>
6

> <is_reference>
0

> <rmsd_to_reference_A>
7.883

> <vina_score>
-6.4

> <minimizedAffinity>
-6.49091

> <minimizedRMSD>
0.05803

> <CNNscore>
0.7315725684

> <CNNaffinity>
3.8729505539

> <CNN_VS>
2.8333444595

> <CNNaffinity_variance>
0.3876506090

$$$$
bgox31_3_pose7


 18 19  0  0  0  0  0  0  0  0999 V2000
    1.3296   -0.8070   -3.2987 C   0  0  0  0  0  0  0  0  0  0  0  0
    0.1519   -0.7131   -2.6059 C   0  0  0  0  0  0  0  0  0  0  0  0
   -0.9116    0.0147   -3.1264 C   0  0  0  0  0  0  0  0  0  0  0  0
   -0.8426    0.6125   -4.3554 C   0  0  0  0  0  0  0  0  0  0  0  0
    0.3660    0.4895   -5.0663 C   0  0  0  0  0  0  0  0  0  0  0  0
    0.4182    1.1774   -6.2755 O   0  0  0  0  0  0  0  0  0  0  0  0
    1.4255   -0.1804   -4.5630 C   0  0  0  0  0  0  0  0  0  0  0  0
   -0.3395    1.6300   -6.5901 H   0  0  0  0  0  0  0  0  0  0  0  0
    2.2969   -2.0424   -1.4479 C   0  0  0  0  0  0  0  0  0  0  0  0
    2.3933   -1.5507   -2.7541 O   0  0  0  0  0  0  0  0  0  0  0  0
   -1.9753    1.4212   -4.9158 C   0  0  0  0  0  0  0  0  0  0  0  0
   -2.7122    0.9239   -5.7555 O   0  0  0  0  0  0  0  0  0  0  0  0
   -2.2387    2.8424   -4.4952 C   0  0  0  0  0  0  0  0  0  0  0  0
   -3.0766    3.0868   -3.4381 C   0  0  0  0  0  0  0  0  0  0  0  0
   -3.3255    4.3901   -3.0896 C   0  0  0  0  0  0  0  0  0  0  0  0
   -2.6481    5.3934   -3.7018 C   0  0  0  0  0  0  0  0  0  0  0  0
   -1.7184    5.1595   -4.7404 C   0  0  0  0  0  0  0  0  0  0  0  0
   -1.5649    3.8428   -5.1365 C   0  0  0  0  0  0  0  0  0  0  0  0
 10  9  1  0
  1 10  1  0
  2  1  1  0
  3  2  2  0
  4  3  1  0
 11  4  1  0
 12 11  2  0
 13 11  1  0
 14 13  2  0
 15 14  1  0
 16 15  2  0
 17 16  1  0
 18 17  2  0
 18 13  1  0
  5  4  2  0
  6  5  1  0
  7  5  1  0
  7  1  2  0
  6  8  1  0
M  END
> <structure>
bgox31_3

> <pose>
7

> <is_reference>
0

> <rmsd_to_reference_A>
3.887

> <vina_score>
-6.2

> <minimizedAffinity>
-6.32960

> <minimizedRMSD>
0.01796

> <CNNscore>
0.8453152180

> <CNNaffinity>
4.1936712265

> <CNN_VS>
3.5449740887

> <CNNaffinity_variance>
0.3249979913

$$$$
bgox31_3_pose8


 18 19  0  0  0  0  0  0  0  0999 V2000
   -1.7127    1.3380   -5.6592 C   0  0  0  0  0  0  0  0  0  0  0  0
   -0.3548    1.3503   -5.4787 C   0  0  0  0  0  0  0  0  0  0  0  0
    0.4898    0.8881   -6.4817 C   0  0  0  0  0  0  0  0  0  0  0  0
    0.0087    0.4575   -7.6878 C   0  0  0  0  0  0  0  0  0  0  0  0
   -1.3871    0.4694   -7.8681 C   0  0  0  0  0  0  0  0  0  0  0  0
   -1.8376   -0.0493   -9.0789 O   0  0  0  0  0  0  0  0  0  0  0  0
   -2.2289    0.8788   -6.8926 C   0  0  0  0  0  0  0  0  0  0  0  0
   -1.2215   -0.3221   -9.7300 H   0  0  0  0  0  0  0  0  0  0  0  0
   -2.2650    3.0381   -4.0184 C   0  0  0  0  0  0  0  0  0  0  0  0
   -2.5492    1.8130   -4.6322 O   0  0  0  0  0  0  0  0  0  0  0  0
    0.9090   -0.0674   -8.7672 C   0  0  0  0  0  0  0  0  0  0  0  0
    1.2611    0.6762   -9.6716 O   0  0  0  0  0  0  0  0  0  0  0  0
    1.3920   -1.4933   -8.7933 C   0  0  0  0  0  0  0  0  0  0  0  0
    1.9310   -2.0413   -7.6584 C   0  0  0  0  0  0  0  0  0  0  0  0
    2.3919   -3.3331   -7.7119 C   0  0  0  0  0  0  0  0  0  0  0  0
    2.1903   -4.0756   -8.8294 C   0  0  0  0  0  0  0  0  0  0  0  0
    1.5635   -3.5547   -9.9851 C   0  0  0  0  0  0  0  0  0  0  0  0
    1.2015   -2.2197   -9.9346 C   0  0  0  0  0  0  0  0  0  0  0  0
 10  9  1  0
  1 10  1  0
  2  1  1  0
  3  2  2  0
  4  3  1  0
 11  4  1  0
 12 11  2  0
 13 11  1  0
 14 13  2  0
 15 14  1  0
 16 15  2  0
 17 16  1  0
 18 17  2  0
 18 13  1  0
  5  4  2  0
  6  5  1  0
  7  5  1  0
  7  1  2  0
  6  8  1  0
M  END
> <structure>
bgox31_3

> <pose>
8

> <is_reference>
0

> <rmsd_to_reference_A>
6.714

> <vina_score>
-6.2

> <minimizedAffinity>
-6.40258

> <minimizedRMSD>
0.04979

> <CNNscore>
0.2719998956

> <CNNaffinity>
3.6291258335

> <CNN_VS>
0.9871218204

> <CNNaffinity_variance>
0.3557610512

$$$$
bgox31_3_pose9


 18 19  0  0  0  0  0  0  0  0999 V2000
   -0.8882    1.1616   -6.1424 C   0  0  0  0  0  0  0  0  0  0  0  0
   -1.8958    0.8327   -7.0120 C   0  0  0  0  0  0  0  0  0  0  0  0
   -1.5972    0.3359   -8.2752 C   0  0  0  0  0  0  0  0  0  0  0  0
   -0.3082    0.1110   -8.6748 C   0  0  0  0  0  0  0  0  0  0  0  0
    0.7162    0.4320   -7.7652 C   0  0  0  0  0  0  0  0  0  0  0  0
    2.0126    0.2608   -8.2419 O   0  0  0  0  0  0  0  0  0  0  0  0
    0.4508    0.9526   -6.5469 C   0  0  0  0  0  0  0  0  0  0  0  0
    2.1543   -0.1042   -9.0932 H   0  0  0  0  0  0  0  0  0  0  0  0
   -2.1949    1.0207   -4.1034 C   0  0  0  0  0  0  0  0  0  0  0  0
   -1.2129    1.6605   -4.8682 O   0  0  0  0  0  0  0  0  0  0  0  0
    0.0248   -0.4002  -10.0460 C   0  0  0  0  0  0  0  0  0  0  0  0
    0.6146   -1.4650  -10.1638 O   0  0  0  0  0  0  0  0  0  0  0  0
   -0.3237    0.3588  -11.2981 C   0  0  0  0  0  0  0  0  0  0  0  0
    0.0891    1.6587  -11.4331 C   0  0  0  0  0  0  0  0  0  0  0  0
   -0.2638    2.3412  -12.5699 C   0  0  0  0  0  0  0  0  0  0  0  0
   -0.8933    1.6900  -13.5804 C   0  0  0  0  0  0  0  0  0  0  0  0
   -1.2586    0.3277  -13.4952 C   0  0  0  0  0  0  0  0  0  0  0  0
   -0.9776   -0.3056  -12.2966 C   0  0  0  0  0  0  0  0  0  0  0  0
 10  9  1  0
  1 10  1  0
  2  1  1  0
  3  2  2  0
  4  3  1  0
 11  4  1  0
 12 11  2  0
 13 11  1  0
 14 13  2  0
 15 14  1  0
 16 15  2  0
 17 16  1  0
 18 17  2  0
 18 13  1  0
  5  4  2  0
  6  5  1  0
  7  5  1  0
  7  1  2  0
  6  8  1  0
M  END
> <structure>
bgox31_3

> <pose>
9

> <is_reference>
0

> <rmsd_to_reference_A>
6.359

> <vina_score>
-6.1

> <minimizedAffinity>
-6.25107

> <minimizedRMSD>
0.22118

> <CNNscore>
0.5190827847

> <CNNaffinity>
3.4580085278

> <CNN_VS>
1.7949926853

> <CNNaffinity_variance>
0.5436575413

$$$$
