bgox31_4_pose0_reference


 18 19  0  0  0  0  0  0  0  0999 V2000
   -4.9093   -7.4065    4.9919 C   0  0  0  0  0  0  0  0  0  0  0  0
   -5.3367   -6.1077    4.9376 C   0  0  0  0  0  0  0  0  0  0  0  0
   -5.2588   -5.3510    3.7132 C   0  0  0  0  0  0  0  0  0  0  0  0
   -4.6735   -5.9883    2.6098 C   0  0  0  0  0  0  0  0  0  0  0  0
   -4.2662   -7.3141    2.6863 C   0  0  0  0  0  0  0  0  0  0  0  0
   -3.7107   -7.8986    1.5351 O   0  0  0  0  0  0  0  0  0  0  0  0
   -4.3632   -8.0525    3.8807 C   0  0  0  0  0  0  0  0  0  0  0  0
   -3.6480   -7.4036    0.7420 H   0  0  0  0  0  0  0  0  0  0  0  0
   -4.2254   -9.2934    6.2858 C   0  0  0  0  0  0  0  0  0  0  0  0
   -5.0352   -8.0927    6.1737 O   0  0  0  0  0  0  0  0  0  0  0  0
   -4.5672   -5.1933    1.3742 C   0  0  0  0  0  0  0  0  0  0  0  0
   -5.6483   -5.0080    0.7232 O   0  0  0  0  0  0  0  0  0  0  0  0
   -3.3867   -4.4178    0.9854 C   0  0  0  0  0  0  0  0  0  0  0  0
   -3.5969   -3.3389    0.1164 C   0  0  0  0  0  0  0  0  0  0  0  0
   -2.4803   -2.6162   -0.3586 C   0  0  0  0  0  0  0  0  0  0  0  0
   -1.2252   -3.0343   -0.0477 C   0  0  0  0  0  0  0  0  0  0  0  0
   -0.9917   -4.1356    0.7582 C   0  0  0  0  0  0  0  0  0  0  0  0
   -2.0817   -4.8688    1.2690 C   0  0  0  0  0  0  0  0  0  0  0  0
 10  9  1  0
  1 10  1  0
  2  1  1  0
  3  2  2  0
  4  3  1  0
 11  4  1  0
 12 11  2  0
 13 11  1  0
 14 13  2  0
 15 14  1  0
 16 15  2  0
 17 16  1  0
 18 17  2  0
 18 13  1  0
  5  4  2  0
  6  5  1  0
  7  5  1  0
  7  1  2  0
  6  8  1  0
M  END
> <structure>
bgox31_4

> <pose>
0

> <is_reference>
1

> <rmsd_to_reference_A>
0.000

> <vina_score>


> <minimizedAffinity>
-4.94529

> <minimizedRMSD>
0.46747

> <CNNscore>
0.6025768518

> <CNNaffinity>
3.6417229176

> <CNN_VS>
2.1944179535

> <CNNaffinity_variance>
0.4135208130

$$$$
bgox31_4_pose1


 18 19  0  0  0  0  0  0  0  0999 V2000
   -2.8444   -3.0429    0.0359 C   0  0  0  0  0  0  0  0  0  0  0  0
   -2.7547   -2.5193   -1.2252 C   0  0  0  0  0  0  0  0  0  0  0  0
   -3.8920   -2.5213   -2.1121 C   0  0  0  0  0  0  0  0  0  0  0  0
   -5.0622   -3.1343   -1.6415 C   0  0  0  0  0  0  0  0  0  0  0  0
   -5.1318   -3.6394   -0.3495 C   0  0  0  0  0  0  0  0  0  0  0  0
   -6.3441   -4.2177    0.0648 O   0  0  0  0  0  0  0  0  0  0  0  0
   -4.0233   -3.6163    0.5172 C   0  0  0  0  0  0  0  0  0  0  0  0
   -7.0795   -4.2307   -0.5157 H   0  0  0  0  0  0  0  0  0  0  0  0
   -0.7545   -4.0296    0.6363 C   0  0  0  0  0  0  0  0  0  0  0  0
   -1.7422   -2.9868    0.8522 O   0  0  0  0  0  0  0  0  0  0  0  0
   -6.2052   -3.1615   -2.5701 C   0  0  0  0  0  0  0  0  0  0  0  0
   -6.4885   -4.2916   -3.0896 O   0  0  0  0  0  0  0  0  0  0  0  0
   -7.1633   -2.0661   -2.7394 C   0  0  0  0  0  0  0  0  0  0  0  0
   -6.9659   -1.2189   -3.8387 C   0  0  0  0  0  0  0  0  0  0  0  0
   -7.8076   -0.0950   -3.9947 C   0  0  0  0  0  0  0  0  0  0  0  0
   -8.7222    0.2002   -3.0346 C   0  0  0  0  0  0  0  0  0  0  0  0
   -8.8918   -0.5867   -1.9086 C   0  0  0  0  0  0  0  0  0  0  0  0
   -8.0851   -1.7286   -1.7284 C   0  0  0  0  0  0  0  0  0  0  0  0
 10  9  1  0
  1 10  1  0
  2  1  1  0
  3  2  2  0
  4  3  1  0
 11  4  1  0
 12 11  2  0
 13 11  1  0
 14 13  2  0
 15 14  1  0
 16 15  2  0
 17 16  1  0
 18 17  2  0
 18 13  1  0
  5  4  2  0
  6  5  1  0
  7  5  1  0
  7  1  2  0
  6  8  1  0
M  END
> <structure>
bgox31_4

> <pose>
1

> <is_reference>
0

> <rmsd_to_reference_A>
6.556

> <vina_score>
-4.8

> <minimizedAffinity>
-5.01218

> <minimizedRMSD>
0.16919

> <CNNscore>
0.6257005334

> <CNNaffinity>
3.1803200245

> <CNN_VS>
1.9899278879

> <CNNaffinity_variance>
0.9621870518

$$$$
bgox31_4_pose2


 18 19  0  0  0  0  0  0  0  0999 V2000
   -3.0184   -3.4205    0.3604 C   0  0  0  0  0  0  0  0  0  0  0  0
   -2.3753   -4.2489    1.2401 C   0  0  0  0  0  0  0  0  0  0  0  0
   -3.1038   -5.2370    1.9975 C   0  0  0  0  0  0  0  0  0  0  0  0
   -4.4960   -5.2625    1.8324 C   0  0  0  0  0  0  0  0  0  0  0  0
   -5.1210   -4.4243    0.9175 C   0  0  0  0  0  0  0  0  0  0  0  0
   -6.5162   -4.5213    0.7844 O   0  0  0  0  0  0  0  0  0  0  0  0
   -4.4006   -3.4754    0.1678 C   0  0  0  0  0  0  0  0  0  0  0  0
   -6.9917   -5.1545    1.2855 H   0  0  0  0  0  0  0  0  0  0  0  0
   -1.0676   -3.0530   -0.9672 C   0  0  0  0  0  0  0  0  0  0  0  0
   -2.2744   -2.5196   -0.3594 O   0  0  0  0  0  0  0  0  0  0  0  0
   -5.2326   -6.2525    2.6368 C   0  0  0  0  0  0  0  0  0  0  0  0
   -5.5911   -7.3191    2.0370 O   0  0  0  0  0  0  0  0  0  0  0  0
   -5.3609   -6.2053    4.0961 C   0  0  0  0  0  0  0  0  0  0  0  0
   -5.6612   -4.9598    4.6641 C   0  0  0  0  0  0  0  0  0  0  0  0
   -5.7067   -4.8438    6.0710 C   0  0  0  0  0  0  0  0  0  0  0  0
   -5.3665   -5.9070    6.8457 C   0  0  0  0  0  0  0  0  0  0  0  0
   -5.0055   -7.1301    6.3067 C   0  0  0  0  0  0  0  0  0  0  0  0
   -4.9699   -7.2896    4.9064 C   0  0  0  0  0  0  0  0  0  0  0  0
 10  9  1  0
  1 10  1  0
  2  1  1  0
  3  2  2  0
  4  3  1  0
 11  4  1  0
 12 11  2  0
 13 11  1  0
 14 13  2  0
 15 14  1  0
 16 15  2  0
 17 16  1  0
 18 17  2  0
 18 13  1  0
  5  4  2  0
  6  5  1  0
  7  5  1  0
  7  1  2  0
  6  8  1  0
M  END
> <structure>
bgox31_4

> <pose>
2

> <is_reference>
0

> <rmsd_to_reference_A>
5.894

> <vina_score>
-4.7

> <minimizedAffinity>
-4.85685

> <minimizedRMSD>
0.15044

> <CNNscore>
0.6229948997

> <CNNaffinity>
3.4245727062

> <CNN_VS>
2.1334912777

> <CNNaffinity_variance>
0.6532279849

$$$$
bgox31_4_pose3


 18 19  0  0  0  0  0  0  0  0999 V2000
   -4.8086   -7.5358    4.7915 C   0  0  0  0  0  0  0  0  0  0  0  0
   -5.2225   -6.2326    4.8527 C   0  0  0  0  0  0  0  0  0  0  0  0
   -5.1786   -5.3844    3.6877 C   0  0  0  0  0  0  0  0  0  0  0  0
   -4.6398   -5.9400    2.5182 C   0  0  0  0  0  0  0  0  0  0  0  0
   -4.2454   -7.2719    2.4790 C   0  0  0  0  0  0  0  0  0  0  0  0
   -3.7377   -7.7709    1.2668 O   0  0  0  0  0  0  0  0  0  0  0  0
   -4.3094   -8.0991    3.6156 C   0  0  0  0  0  0  0  0  0  0  0  0
   -3.6968   -7.2167    0.5124 H   0  0  0  0  0  0  0  0  0  0  0  0
   -4.3370   -7.7242    7.1256 C   0  0  0  0  0  0  0  0  0  0  0  0
   -4.9011   -8.3094    5.9218 O   0  0  0  0  0  0  0  0  0  0  0  0
   -4.5671   -5.0536    1.3444 C   0  0  0  0  0  0  0  0  0  0  0  0
   -5.6766   -4.7513    0.7914 O   0  0  0  0  0  0  0  0  0  0  0  0
   -3.3691   -4.3197    0.9316 C   0  0  0  0  0  0  0  0  0  0  0  0
   -3.5532   -3.2642    0.0285 C   0  0  0  0  0  0  0  0  0  0  0  0
   -2.4194   -2.5840   -0.4690 C   0  0  0  0  0  0  0  0  0  0  0  0
   -1.1750   -3.0220   -0.1452 C   0  0  0  0  0  0  0  0  0  0  0  0
   -0.9679   -4.1036    0.6949 C   0  0  0  0  0  0  0  0  0  0  0  0
   -2.0751   -4.7934    1.2286 C   0  0  0  0  0  0  0  0  0  0  0  0
 10  9  1  0
  1 10  1  0
  2  1  1  0
  3  2  2  0
  4  3  1  0
 11  4  1  0
 12 11  2  0
 13 11  1  0
 14 13  2  0
 15 14  1  0
 16 15  2  0
 17 16  1  0
 18 17  2  0
 18 13  1  0
  5  4  2  0
  6  5  1  0
  7  5  1  0
  7  1  2  0
  6  8  1  0
M  END
> <structure>
bgox31_4

> <pose>
3

> <is_reference>
0

> <rmsd_to_reference_A>
0.649

> <vina_score>
-4.7

> <minimizedAffinity>
-5.05482

> <minimizedRMSD>
0.09809

> <CNNscore>
0.6323367953

> <CNNaffinity>
3.6969413757

> <CNN_VS>
2.3377120495

> <CNNaffinity_variance>
0.4125065804

$$$$
bgox31_4_pose4


 18 19  0  0  0  0  0  0  0  0999 V2000
   -5.6428   -2.6920   -2.2991 C   0  0  0  0  0  0  0  0  0  0  0  0
   -6.1678   -3.2951   -1.1892 C   0  0  0  0  0  0  0  0  0  0  0  0
   -5.3271   -3.6672   -0.0789 C   0  0  0  0  0  0  0  0  0  0  0  0
   -3.9504   -3.4368   -0.2194 C   0  0  0  0  0  0  0  0  0  0  0  0
   -3.4462   -2.8034   -1.3491 C   0  0  0  0  0  0  0  0  0  0  0  0
   -2.0601   -2.5809   -1.4137 O   0  0  0  0  0  0  0  0  0  0  0  0
   -4.2772   -2.4257   -2.4203 C   0  0  0  0  0  0  0  0  0  0  0  0
   -1.5111   -2.8342   -0.6978 H   0  0  0  0  0  0  0  0  0  0  0  0
   -6.7182   -0.9006   -3.4558 C   0  0  0  0  0  0  0  0  0  0  0  0
   -6.4912   -2.3289   -3.3145 O   0  0  0  0  0  0  0  0  0  0  0  0
   -3.0979   -3.8532    0.9064 C   0  0  0  0  0  0  0  0  0  0  0  0
   -2.1869   -3.0337    1.2629 O   0  0  0  0  0  0  0  0  0  0  0  0
   -3.3725   -4.9992    1.7767 C   0  0  0  0  0  0  0  0  0  0  0  0
   -2.6897   -6.1885    1.4909 C   0  0  0  0  0  0  0  0  0  0  0  0
   -2.9868   -7.3453    2.2441 C   0  0  0  0  0  0  0  0  0  0  0  0
   -3.9910   -7.3138    3.1588 C   0  0  0  0  0  0  0  0  0  0  0  0
   -4.7229   -6.1666    3.4138 C   0  0  0  0  0  0  0  0  0  0  0  0
   -4.4398   -4.9864    2.6977 C   0  0  0  0  0  0  0  0  0  0  0  0
 10  9  1  0
  1 10  1  0
  2  1  1  0
  3  2  2  0
  4  3  1  0
 11  4  1  0
 12 11  2  0
 13 11  1  0
 14 13  2  0
 15 14  1  0
 16 15  2  0
 17 16  1  0
 18 17  2  0
 18 13  1  0
  5  4  2  0
  6  5  1  0
  7  5  1  0
  7  1  2  0
  6  8  1  0
M  END
> <structure>
bgox31_4

> <pose>
4

> <is_reference>
0

> <rmsd_to_reference_A>
6.452

> <vina_score>
-4.7

> <minimizedAffinity>
-5.08956

> <minimizedRMSD>
0.12797

> <CNNscore>
0.3016046286

> <CNNaffinity>
3.3613936901

> <CNN_VS>
1.0138119459

> <CNNaffinity_variance>
0.6813041568

$$$$
bgox31_4_pose5


 18 19  0  0  0  0  0  0  0  0999 V2000
   -7.2499   -4.6132    4.8445 C   0  0  0  0  0  0  0  0  0  0  0  0
   -6.0070   -5.1517    5.0366 C   0  0  0  0  0  0  0  0  0  0  0  0
   -5.1267   -5.4021    3.9233 C   0  0  0  0  0  0  0  0  0  0  0  0
   -5.6274   -5.1248    2.6431 C   0  0  0  0  0  0  0  0  0  0  0  0
   -6.8844   -4.5588    2.4774 C   0  0  0  0  0  0  0  0  0  0  0  0
   -7.3145   -4.2826    1.1678 O   0  0  0  0  0  0  0  0  0  0  0  0
   -7.7321   -4.2992    3.5721 C   0  0  0  0  0  0  0  0  0  0  0  0
   -6.7480   -4.4567    0.4421 H   0  0  0  0  0  0  0  0  0  0  0  0
   -7.9140   -3.0317    6.5065 C   0  0  0  0  0  0  0  0  0  0  0  0
   -8.0372   -4.3640    5.9406 O   0  0  0  0  0  0  0  0  0  0  0  0
   -4.7309   -5.4174    1.5109 C   0  0  0  0  0  0  0  0  0  0  0  0
   -5.1171   -6.3242    0.7013 O   0  0  0  0  0  0  0  0  0  0  0  0
   -3.5827   -4.5925    1.1266 C   0  0  0  0  0  0  0  0  0  0  0  0
   -3.8463   -3.4801    0.3182 C   0  0  0  0  0  0  0  0  0  0  0  0
   -2.7632   -2.7049   -0.1529 C   0  0  0  0  0  0  0  0  0  0  0  0
   -1.4892   -3.1041    0.1004 C   0  0  0  0  0  0  0  0  0  0  0  0
   -1.2034   -4.2365    0.8442 C   0  0  0  0  0  0  0  0  0  0  0  0
   -2.2591   -5.0218    1.3500 C   0  0  0  0  0  0  0  0  0  0  0  0
 10  9  1  0
  1 10  1  0
  2  1  1  0
  3  2  2  0
  4  3  1  0
 11  4  1  0
 12 11  2  0
 13 11  1  0
 14 13  2  0
 15 14  1  0
 16 15  2  0
 17 16  1  0
 18 17  2  0
 18 13  1  0
  5  4  2  0
  6  5  1  0
  7  5  1  0
  7  1  2  0
  6  8  1  0
M  END
> <structure>
bgox31_4

> <pose>
5

> <is_reference>
0

> <rmsd_to_reference_A>
2.913

> <vina_score>
-4.6

> <minimizedAffinity>
-4.79294

> <minimizedRMSD>
0.17320

> <CNNscore>
0.6355078816

> <CNNaffinity>
3.7236220837

> <CNN_VS>
2.3663911819

> <CNNaffinity_variance>
0.3383688629

$$$$
bgox31_4_pose6


 18 19  0  0  0  0  0  0  0  0999 V2000
   -9.2712    0.2238   -2.0188 C   0  0  0  0  0  0  0  0  0  0  0  0
   -9.3904   -0.9607   -1.3437 C   0  0  0  0  0  0  0  0  0  0  0  0
   -8.4045   -2.0029   -1.4926 C   0  0  0  0  0  0  0  0  0  0  0  0
   -7.3631   -1.7647   -2.4003 C   0  0  0  0  0  0  0  0  0  0  0  0
   -7.2546   -0.5458   -3.0580 C   0  0  0  0  0  0  0  0  0  0  0  0
   -6.1715   -0.3663   -3.9348 O   0  0  0  0  0  0  0  0  0  0  0  0
   -8.2106    0.4735   -2.8927 C   0  0  0  0  0  0  0  0  0  0  0  0
   -5.5373   -1.0478   -4.0417 H   0  0  0  0  0  0  0  0  0  0  0  0
   -9.7889    2.3284   -1.0159 C   0  0  0  0  0  0  0  0  0  0  0  0
  -10.2194    1.1947   -1.8166 O   0  0  0  0  0  0  0  0  0  0  0  0
   -6.3816   -2.8503   -2.5705 C   0  0  0  0  0  0  0  0  0  0  0  0
   -6.4879   -3.5521   -3.6308 O   0  0  0  0  0  0  0  0  0  0  0  0
   -5.1786   -3.0173   -1.7520 C   0  0  0  0  0  0  0  0  0  0  0  0
   -5.3602   -3.5107   -0.4538 C   0  0  0  0  0  0  0  0  0  0  0  0
   -4.2428   -3.6038    0.4050 C   0  0  0  0  0  0  0  0  0  0  0  0
   -3.0376   -3.1269   -0.0030 C   0  0  0  0  0  0  0  0  0  0  0  0
   -2.8477   -2.5780   -1.2600 C   0  0  0  0  0  0  0  0  0  0  0  0
   -3.9352   -2.4874   -2.1528 C   0  0  0  0  0  0  0  0  0  0  0  0
 10  9  1  0
  1 10  1  0
  2  1  1  0
  3  2  2  0
  4  3  1  0
 11  4  1  0
 12 11  2  0
 13 11  1  0
 14 13  2  0
 15 14  1  0
 16 15  2  0
 17 16  1  0
 18 17  2  0
 18 13  1  0
  5  4  2  0
  6  5  1  0
  7  5  1  0
  7  1  2  0
  6  8  1  0
M  END
> <structure>
bgox31_4

> <pose>
6

> <is_reference>
0

> <rmsd_to_reference_A>
7.924

> <vina_score>
-4.6

> <minimizedAffinity>
-4.81984

> <minimizedRMSD>
0.08214

> <CNNscore>
0.5756015182

> <CNNaffinity>
3.9104673862

> <CNN_VS>
2.2508709431

> <CNNaffinity_variance>
0.1949508637

$$$$
bgox31_4_pose7


 18 19  0  0  0  0  0  0  0  0999 V2000
   -6.8438   -7.7570   -0.4264 C   0  0  0  0  0  0  0  0  0  0  0  0
   -7.1684   -6.4369   -0.2680 C   0  0  0  0  0  0  0  0  0  0  0  0
   -6.2894   -5.5357    0.4345 C   0  0  0  0  0  0  0  0  0  0  0  0
   -5.1285   -6.0874    0.9927 C   0  0  0  0  0  0  0  0  0  0  0  0
   -4.8123   -7.4265    0.8002 C   0  0  0  0  0  0  0  0  0  0  0  0
   -3.6202   -7.9090    1.3671 O   0  0  0  0  0  0  0  0  0  0  0  0
   -5.6658   -8.2969    0.0966 C   0  0  0  0  0  0  0  0  0  0  0  0
   -3.0545   -7.3266    1.8349 H   0  0  0  0  0  0  0  0  0  0  0  0
   -7.8260   -9.9230   -0.6308 C   0  0  0  0  0  0  0  0  0  0  0  0
   -7.6992   -8.5660   -1.1313 O   0  0  0  0  0  0  0  0  0  0  0  0
   -4.2561   -5.1638    1.7392 C   0  0  0  0  0  0  0  0  0  0  0  0
   -4.3240   -5.2215    3.0108 O   0  0  0  0  0  0  0  0  0  0  0  0
   -3.1711   -4.3823    1.1407 C   0  0  0  0  0  0  0  0  0  0  0  0
   -3.5422   -3.3590    0.2579 C   0  0  0  0  0  0  0  0  0  0  0  0
   -2.5318   -2.6356   -0.4130 C   0  0  0  0  0  0  0  0  0  0  0  0
   -1.2312   -3.0046   -0.2698 C   0  0  0  0  0  0  0  0  0  0  0  0
   -0.8457   -4.0526    0.5473 C   0  0  0  0  0  0  0  0  0  0  0  0
   -1.8244   -4.7834    1.2505 C   0  0  0  0  0  0  0  0  0  0  0  0
 10  9  1  0
  1 10  1  0
  2  1  1  0
  3  2  2  0
  4  3  1  0
 11  4  1  0
 12 11  2  0
 13 11  1  0
 14 13  2  0
 15 14  1  0
 16 15  2  0
 17 16  1  0
 18 17  2  0
 18 13  1  0
  5  4  2  0
  6  5  1  0
  7  5  1  0
  7  1  2  0
  6  8  1  0
M  END
> <structure>
bgox31_4

> <pose>
7

> <is_reference>
0

> <rmsd_to_reference_A>
3.638

> <vina_score>
-4.6

> <minimizedAffinity>
-4.84998

> <minimizedRMSD>
0.23527

> <CNNscore>
0.4600404203

> <CNNaffinity>
3.6913373470

> <CNN_VS>
1.6981643438

> <CNNaffinity_variance>
0.2872415483

$$$$
bgox31_4_pose8


 18 19  0  0  0  0  0  0  0  0999 V2000
   -5.4006   -6.5377    5.6204 C   0  0  0  0  0  0  0  0  0  0  0  0
   -5.6647   -5.2742    5.1652 C   0  0  0  0  0  0  0  0  0  0  0  0
   -5.4249   -4.9149    3.7907 C   0  0  0  0  0  0  0  0  0  0  0  0
   -4.8568   -5.8991    2.9682 C   0  0  0  0  0  0  0  0  0  0  0  0
   -4.6174   -7.1790    3.4501 C   0  0  0  0  0  0  0  0  0  0  0  0
   -4.0707   -8.1235    2.5637 O   0  0  0  0  0  0  0  0  0  0  0  0
   -4.8723   -7.5275    4.7893 C   0  0  0  0  0  0  0  0  0  0  0  0
   -3.9024   -7.8874    1.6727 H   0  0  0  0  0  0  0  0  0  0  0  0
   -6.1914   -5.7354    7.7259 C   0  0  0  0  0  0  0  0  0  0  0  0
   -5.6775   -6.8370    6.9314 O   0  0  0  0  0  0  0  0  0  0  0  0
   -4.5835   -5.5092    1.5739 C   0  0  0  0  0  0  0  0  0  0  0  0
   -5.4855   -5.7938    0.7167 O   0  0  0  0  0  0  0  0  0  0  0  0
   -3.4921   -4.6253    1.1579 C   0  0  0  0  0  0  0  0  0  0  0  0
   -3.8374   -3.5276    0.3581 C   0  0  0  0  0  0  0  0  0  0  0  0
   -2.8099   -2.6969   -0.1430 C   0  0  0  0  0  0  0  0  0  0  0  0
   -1.5095   -3.0288    0.0743 C   0  0  0  0  0  0  0  0  0  0  0  0
   -1.1444   -4.1442    0.8074 C   0  0  0  0  0  0  0  0  0  0  0  0
   -2.1416   -4.9840    1.3421 C   0  0  0  0  0  0  0  0  0  0  0  0
 10  9  1  0
  1 10  1  0
  2  1  1  0
  3  2  2  0
  4  3  1  0
 11  4  1  0
 12 11  2  0
 13 11  1  0
 14 13  2  0
 15 14  1  0
 16 15  2  0
 17 16  1  0
 18 17  2  0
 18 13  1  0
  5  4  2  0
  6  5  1  0
  7  5  1  0
  7  1  2  0
  6  8  1  0
M  END
> <structure>
bgox31_4

> <pose>
8

> <is_reference>
0

> <rmsd_to_reference_A>
1.099

> <vina_score>
-4.5

> <minimizedAffinity>
-4.71315

> <minimizedRMSD>
0.20267

> <CNNscore>
0.6480567455

> <CNNaffinity>
3.6252906322

> <CNN_VS>
2.3493940830

> <CNNaffinity_variance>
0.3973437548

$$$$
bgox31_4_pose9


 18 19  0  0  0  0  0  0  0  0999 V2000
   -5.2151   -9.3901    1.1359 C   0  0  0  0  0  0  0  0  0  0  0  0
   -5.8556   -8.3372    0.5407 C   0  0  0  0  0  0  0  0  0  0  0  0
   -5.4362   -6.9798    0.7836 C   0  0  0  0  0  0  0  0  0  0  0  0
   -4.3900   -6.7931    1.6985 C   0  0  0  0  0  0  0  0  0  0  0  0
   -3.7437   -7.8807    2.2733 C   0  0  0  0  0  0  0  0  0  0  0  0
   -2.6866   -7.6217    3.1621 O   0  0  0  0  0  0  0  0  0  0  0  0
   -4.1468   -9.2044    2.0160 C   0  0  0  0  0  0  0  0  0  0  0  0
   -2.4217   -6.7388    3.3303 H   0  0  0  0  0  0  0  0  0  0  0  0
   -4.6271  -11.7006    1.0023 C   0  0  0  0  0  0  0  0  0  0  0  0
   -5.6337  -10.6650    0.8464 O   0  0  0  0  0  0  0  0  0  0  0  0
   -3.9933   -5.4002    1.9651 C   0  0  0  0  0  0  0  0  0  0  0  0
   -4.2516   -4.9492    3.1306 O   0  0  0  0  0  0  0  0  0  0  0  0
   -3.1277   -4.6012    1.0933 C   0  0  0  0  0  0  0  0  0  0  0  0
   -1.7482   -4.8248    1.1963 C   0  0  0  0  0  0  0  0  0  0  0  0
   -0.8671   -4.0179    0.4427 C   0  0  0  0  0  0  0  0  0  0  0  0
   -1.3592   -2.9832   -0.2878 C   0  0  0  0  0  0  0  0  0  0  0  0
   -2.7143   -2.7045   -0.3543 C   0  0  0  0  0  0  0  0  0  0  0  0
   -3.6259   -3.5014    0.3672 C   0  0  0  0  0  0  0  0  0  0  0  0
 10  9  1  0
  1 10  1  0
  2  1  1  0
  3  2  2  0
  4  3  1  0
 11  4  1  0
 12 11  2  0
 13 11  1  0
 14 13  2  0
 15 14  1  0
 16 15  2  0
 17 16  1  0
 18 17  2  0
 18 13  1  0
  5  4  2  0
  6  5  1  0
  7  5  1  0
  7  1  2  0
  6  8  1  0
M  END
> <structure>
bgox31_4

> <pose>
9

> <is_reference>
0

> <rmsd_to_reference_A>
3.081

> <vina_score>
-4.3

> <minimizedAffinity>
-4.50284

> <minimizedRMSD>
0.24859

> <CNNscore>
0.3732410967

> <CNNaffinity>
3.5522747040

> <CNN_VS>
1.3258548975

> <CNNaffinity_variance>
0.3330954015

$$$$
