bgox31_2_pose0_reference


 18 19  0  0  0  0  0  0  0  0999 V2000
   -9.8239   -0.1911   -0.5503 C   0  0  0  0  0  0  0  0  0  0  0  0
  -10.0616    0.9698   -1.2919 C   0  0  0  0  0  0  0  0  0  0  0  0
   -9.4299    2.1417   -0.9601 C   0  0  0  0  0  0  0  0  0  0  0  0
   -8.5651    2.1384    0.0996 C   0  0  0  0  0  0  0  0  0  0  0  0
   -8.2874    0.9829    0.8107 C   0  0  0  0  0  0  0  0  0  0  0  0
   -7.3778    1.0411    1.7954 O   0  0  0  0  0  0  0  0  0  0  0  0
   -8.9172   -0.1748    0.4685 C   0  0  0  0  0  0  0  0  0  0  0  0
   -6.9642    1.8557    2.0037 H   0  0  0  0  0  0  0  0  0  0  0  0
   -9.7545   -2.3263   -1.5029 C   0  0  0  0  0  0  0  0  0  0  0  0
  -10.4898   -1.3073   -0.8723 O   0  0  0  0  0  0  0  0  0  0  0  0
   -7.9095    3.4387    0.4662 C   0  0  0  0  0  0  0  0  0  0  0  0
   -6.7192    3.5220    0.3412 O   0  0  0  0  0  0  0  0  0  0  0  0
   -8.6673    4.5974    0.8388 C   0  0  0  0  0  0  0  0  0  0  0  0
   -8.6007    5.6823   -0.0043 C   0  0  0  0  0  0  0  0  0  0  0  0
   -9.2639    6.8344    0.3542 C   0  0  0  0  0  0  0  0  0  0  0  0
   -9.9793    6.8570    1.5271 C   0  0  0  0  0  0  0  0  0  0  0  0
  -10.0249    5.8255    2.3353 C   0  0  0  0  0  0  0  0  0  0  0  0
   -9.3699    4.6667    1.9755 C   0  0  0  0  0  0  0  0  0  0  0  0
 10  9  1  0
  1 10  1  0
  2  1  1  0
  3  2  2  0
  4  3  1  0
 11  4  1  0
 12 11  2  0
 13 11  1  0
 14 13  2  0
 15 14  1  0
 16 15  2  0
 17 16  1  0
 18 17  2  0
 18 13  1  0
  5  4  2  0
  6  5  1  0
  7  5  1  0
  7  1  2  0
  6  8  1  0
M  END
> <structure>
bgox31_2

> <pose>
0

> <is_reference>
1

> <rmsd_to_reference_A>
0.000

> <vina_score>


> <minimizedAffinity>
-3.29603

> <minimizedRMSD>
2.52886

> <CNNscore>
0.8444063663

> <CNNaffinity>
4.7104558945

> <CNN_VS>
3.9775390625

> <CNNaffinity_variance>
0.3001503944

$$$$
bgox31_2_pose1


 18 19  0  0  0  0  0  0  0  0999 V2000
   -6.6240    2.9133    1.2921 C   0  0  0  0  0  0  0  0  0  0  0  0
   -7.4489    3.6743    0.4592 C   0  0  0  0  0  0  0  0  0  0  0  0
   -8.5658    3.1123   -0.1065 C   0  0  0  0  0  0  0  0  0  0  0  0
   -8.8485    1.8040    0.1727 C   0  0  0  0  0  0  0  0  0  0  0  0
   -8.0641    1.0556    1.0344 C   0  0  0  0  0  0  0  0  0  0  0  0
   -8.4418   -0.2015    1.3139 O   0  0  0  0  0  0  0  0  0  0  0  0
   -6.9614    1.6258    1.5925 C   0  0  0  0  0  0  0  0  0  0  0  0
   -9.2072   -0.5613    0.9106 H   0  0  0  0  0  0  0  0  0  0  0  0
   -5.4853    4.8824    1.8342 C   0  0  0  0  0  0  0  0  0  0  0  0
   -5.5182    3.4782    1.7930 O   0  0  0  0  0  0  0  0  0  0  0  0
  -10.0570    1.1994   -0.4821 C   0  0  0  0  0  0  0  0  0  0  0  0
  -11.0632    1.1142    0.1656 O   0  0  0  0  0  0  0  0  0  0  0  0
  -10.0734    0.8391   -1.8700 C   0  0  0  0  0  0  0  0  0  0  0  0
   -9.3884   -0.2998   -2.2263 C   0  0  0  0  0  0  0  0  0  0  0  0
   -9.3281   -0.6408   -3.5589 C   0  0  0  0  0  0  0  0  0  0  0  0
   -9.9653    0.1533   -4.4810 C   0  0  0  0  0  0  0  0  0  0  0  0
  -10.6020    1.2468   -4.1381 C   0  0  0  0  0  0  0  0  0  0  0  0
  -10.6723    1.5875   -2.8043 C   0  0  0  0  0  0  0  0  0  0  0  0
 10  9  1  0
  1 10  1  0
  2  1  1  0
  3  2  2  0
  4  3  1  0
 11  4  1  0
 12 11  2  0
 13 11  1  0
 14 13  2  0
 15 14  1  0
 16 15  2  0
 17 16  1  0
 18 17  2  0
 18 13  1  0
  5  4  2  0
  6  5  1  0
  7  5  1  0
  7  1  2  0
  6  8  1  0
M  END
> <structure>
bgox31_2

> <pose>
1

> <is_reference>
0

> <rmsd_to_reference_A>
6.306

> <vina_score>
-4.1

> <minimizedAffinity>
-4.18248

> <minimizedRMSD>
0.09165

> <CNNscore>
0.8894141912

> <CNNaffinity>
4.3046669960

> <CNN_VS>
3.8286318779

> <CNNaffinity_variance>
0.4197222292

$$$$
bgox31_2_pose2


 18 19  0  0  0  0  0  0  0  0999 V2000
   -6.3109    3.2513    1.4573 C   0  0  0  0  0  0  0  0  0  0  0  0
   -5.4604    4.1842    2.0572 C   0  0  0  0  0  0  0  0  0  0  0  0
   -4.8729    3.9048    3.2643 C   0  0  0  0  0  0  0  0  0  0  0  0
   -5.1346    2.6992    3.8539 C   0  0  0  0  0  0  0  0  0  0  0  0
   -5.9393    1.7499    3.2460 C   0  0  0  0  0  0  0  0  0  0  0  0
   -6.0969    0.5632    3.8516 O   0  0  0  0  0  0  0  0  0  0  0  0
   -6.5128    2.0359    2.0453 C   0  0  0  0  0  0  0  0  0  0  0  0
   -5.6871    0.4011    4.6784 H   0  0  0  0  0  0  0  0  0  0  0  0
   -8.2129    3.1002    0.1053 C   0  0  0  0  0  0  0  0  0  0  0  0
   -6.9035    3.5720    0.3007 O   0  0  0  0  0  0  0  0  0  0  0  0
   -4.5075    2.4275    5.1909 C   0  0  0  0  0  0  0  0  0  0  0  0
   -5.2075    2.4922    6.1636 O   0  0  0  0  0  0  0  0  0  0  0  0
   -3.1499    1.9843    5.3221 C   0  0  0  0  0  0  0  0  0  0  0  0
   -2.2085    2.9406    5.6223 C   0  0  0  0  0  0  0  0  0  0  0  0
   -0.8873    2.5623    5.6921 C   0  0  0  0  0  0  0  0  0  0  0  0
   -0.5552    1.2463    5.4766 C   0  0  0  0  0  0  0  0  0  0  0  0
   -1.4551    0.3425    5.1740 C   0  0  0  0  0  0  0  0  0  0  0  0
   -2.7813    0.7149    5.1123 C   0  0  0  0  0  0  0  0  0  0  0  0
 10  9  1  0
  1 10  1  0
  2  1  1  0
  3  2  2  0
  4  3  1  0
 11  4  1  0
 12 11  2  0
 13 11  1  0
 14 13  2  0
 15 14  1  0
 16 15  2  0
 17 16  1  0
 18 17  2  0
 18 13  1  0
  5  4  2  0
  6  5  1  0
  7  5  1  0
  7  1  2  0
  6  8  1  0
M  END
> <structure>
bgox31_2

> <pose>
2

> <is_reference>
0

> <rmsd_to_reference_A>
5.762

> <vina_score>
-3.9

> <minimizedAffinity>
-4.05223

> <minimizedRMSD>
0.30370

> <CNNscore>
0.6856902838

> <CNNaffinity>
3.5757911205

> <CNN_VS>
2.4518852234

> <CNNaffinity_variance>
0.0915837958

$$$$
bgox31_2_pose3


 18 19  0  0  0  0  0  0  0  0999 V2000
  -11.0272    1.2368   -4.4037 C   0  0  0  0  0  0  0  0  0  0  0  0
   -9.8821    0.5494   -3.9900 C   0  0  0  0  0  0  0  0  0  0  0  0
   -9.5653    0.4750   -2.6575 C   0  0  0  0  0  0  0  0  0  0  0  0
  -10.3970    1.0802   -1.7557 C   0  0  0  0  0  0  0  0  0  0  0  0
  -11.5584    1.7233   -2.1514 C   0  0  0  0  0  0  0  0  0  0  0  0
  -12.3600    2.2358   -1.2048 O   0  0  0  0  0  0  0  0  0  0  0  0
  -11.8639    1.7851   -3.4770 C   0  0  0  0  0  0  0  0  0  0  0  0
  -12.1171    2.1747   -0.3019 H   0  0  0  0  0  0  0  0  0  0  0  0
  -12.4740    1.9784   -6.0854 C   0  0  0  0  0  0  0  0  0  0  0  0
  -11.2841    1.3280   -5.7140 O   0  0  0  0  0  0  0  0  0  0  0  0
  -10.0148    1.0161   -0.3050 C   0  0  0  0  0  0  0  0  0  0  0  0
  -10.6227    0.2603    0.4031 O   0  0  0  0  0  0  0  0  0  0  0  0
   -8.8873    1.7285    0.2199 C   0  0  0  0  0  0  0  0  0  0  0  0
   -8.7764    3.0564   -0.1217 C   0  0  0  0  0  0  0  0  0  0  0  0
   -7.6723    3.7562    0.3115 C   0  0  0  0  0  0  0  0  0  0  0  0
   -6.7312    3.1128    1.0791 C   0  0  0  0  0  0  0  0  0  0  0  0
   -6.8328    1.8425    1.3862 C   0  0  0  0  0  0  0  0  0  0  0  0
   -7.9421    1.1405    0.9628 C   0  0  0  0  0  0  0  0  0  0  0  0
 10  9  1  0
  1 10  1  0
  2  1  1  0
  3  2  2  0
  4  3  1  0
 11  4  1  0
 12 11  2  0
 13 11  1  0
 14 13  2  0
 15 14  1  0
 16 15  2  0
 17 16  1  0
 18 17  2  0
 18 13  1  0
  5  4  2  0
  6  5  1  0
  7  5  1  0
  7  1  2  0
  6  8  1  0
M  END
> <structure>
bgox31_2

> <pose>
3

> <is_reference>
0

> <rmsd_to_reference_A>
5.847

> <vina_score>
-3.9

> <minimizedAffinity>
-3.98996

> <minimizedRMSD>
0.17897

> <CNNscore>
0.7854017019

> <CNNaffinity>
3.9699051380

> <CNN_VS>
3.1179702282

> <CNNaffinity_variance>
0.0129024824

$$$$
bgox31_2_pose4


 18 19  0  0  0  0  0  0  0  0999 V2000
   -3.6157   -3.8862   -3.2344 C   0  0  0  0  0  0  0  0  0  0  0  0
   -2.8496   -2.7499   -3.5092 C   0  0  0  0  0  0  0  0  0  0  0  0
   -3.2316   -1.8832   -4.5015 C   0  0  0  0  0  0  0  0  0  0  0  0
   -4.3750   -2.1568   -5.2013 C   0  0  0  0  0  0  0  0  0  0  0  0
   -5.1666   -3.2537   -4.9050 C   0  0  0  0  0  0  0  0  0  0  0  0
   -6.3094   -3.4213   -5.5879 O   0  0  0  0  0  0  0  0  0  0  0  0
   -4.7786   -4.1040   -3.9141 C   0  0  0  0  0  0  0  0  0  0  0  0
   -6.5445   -2.8162   -6.2635 H   0  0  0  0  0  0  0  0  0  0  0  0
   -3.7360   -4.5755   -1.0031 C   0  0  0  0  0  0  0  0  0  0  0  0
   -3.1923   -4.7340   -2.2894 O   0  0  0  0  0  0  0  0  0  0  0  0
   -4.7580   -1.2135   -6.3051 C   0  0  0  0  0  0  0  0  0  0  0  0
   -5.7812   -0.5976   -6.1880 O   0  0  0  0  0  0  0  0  0  0  0  0
   -3.8904   -0.9454   -7.4148 C   0  0  0  0  0  0  0  0  0  0  0  0
   -2.9435   -1.8987   -7.7094 C   0  0  0  0  0  0  0  0  0  0  0  0
   -2.0525   -1.6454   -8.7276 C   0  0  0  0  0  0  0  0  0  0  0  0
   -2.1475   -0.4644   -9.4221 C   0  0  0  0  0  0  0  0  0  0  0  0
   -3.0411    0.4486   -9.1249 C   0  0  0  0  0  0  0  0  0  0  0  0
   -3.9414    0.1959   -8.1123 C   0  0  0  0  0  0  0  0  0  0  0  0
 10  9  1  0
  1 10  1  0
  2  1  1  0
  3  2  2  0
  4  3  1  0
 11  4  1  0
 12 11  2  0
 13 11  1  0
 14 13  2  0
 15 14  1  0
 16 15  2  0
 17 16  1  0
 18 17  2  0
 18 13  1  0
  5  4  2  0
  6  5  1  0
  7  5  1  0
  7  1  2  0
  6  8  1  0
M  END
> <structure>
bgox31_2

> <pose>
4

> <is_reference>
0

> <rmsd_to_reference_A>
10.995

> <vina_score>
-3.8

> <minimizedAffinity>
-4.26722

> <minimizedRMSD>
0.53608

> <CNNscore>
0.5938584805

> <CNNaffinity>
3.7073142529

> <CNN_VS>
2.2016201019

> <CNNaffinity_variance>
0.0774715170

$$$$
bgox31_2_pose5


 18 19  0  0  0  0  0  0  0  0999 V2000
  -10.0066    8.7944   -2.0124 C   0  0  0  0  0  0  0  0  0  0  0  0
   -8.9911    8.0348   -1.4247 C   0  0  0  0  0  0  0  0  0  0  0  0
   -7.7206    8.5427   -1.3229 C   0  0  0  0  0  0  0  0  0  0  0  0
   -7.4818    9.8023   -1.8000 C   0  0  0  0  0  0  0  0  0  0  0  0
   -8.4915   10.5802   -2.3407 C   0  0  0  0  0  0  0  0  0  0  0  0
   -8.1976   11.8316   -2.7266 O   0  0  0  0  0  0  0  0  0  0  0  0
   -9.7492   10.0674   -2.4322 C   0  0  0  0  0  0  0  0  0  0  0  0
   -7.3204   12.1518   -2.6493 H   0  0  0  0  0  0  0  0  0  0  0  0
  -12.2184    9.0540   -2.7268 C   0  0  0  0  0  0  0  0  0  0  0  0
  -11.2243    8.2529   -2.1370 O   0  0  0  0  0  0  0  0  0  0  0  0
   -6.0772   10.3254   -1.7083 C   0  0  0  0  0  0  0  0  0  0  0  0
   -5.8413   11.1547   -0.8733 O   0  0  0  0  0  0  0  0  0  0  0  0
   -5.0076    9.7854   -2.4947 C   0  0  0  0  0  0  0  0  0  0  0  0
   -5.2621    9.5768   -3.8309 C   0  0  0  0  0  0  0  0  0  0  0  0
   -4.2796    8.9986   -4.6036 C   0  0  0  0  0  0  0  0  0  0  0  0
   -3.0797    8.6670   -4.0223 C   0  0  0  0  0  0  0  0  0  0  0  0
   -2.8497    8.8518   -2.7440 C   0  0  0  0  0  0  0  0  0  0  0  0
   -3.8276    9.4391   -1.9692 C   0  0  0  0  0  0  0  0  0  0  0  0
 10  9  1  0
  1 10  1  0
  2  1  1  0
  3  2  2  0
  4  3  1  0
 11  4  1  0
 12 11  2  0
 13 11  1  0
 14 13  2  0
 15 14  1  0
 16 15  2  0
 17 16  1  0
 18 17  2  0
 18 13  1  0
  5  4  2  0
  6  5  1  0
  7  5  1  0
  7  1  2  0
  6  8  1  0
M  END
> <structure>
bgox31_2

> <pose>
5

> <is_reference>
0

> <rmsd_to_reference_A>
8.485

> <vina_score>
-3.8

> <minimizedAffinity>
-3.89705

> <minimizedRMSD>
0.22474

> <CNNscore>
0.8056445122

> <CNNaffinity>
4.7920036316

> <CNN_VS>
3.8606514931

> <CNNaffinity_variance>
0.1579796523

$$$$
bgox31_2_pose6


 18 19  0  0  0  0  0  0  0  0999 V2000
   -7.8554    7.3454    0.6404 C   0  0  0  0  0  0  0  0  0  0  0  0
   -6.9295    8.3781    0.8056 C   0  0  0  0  0  0  0  0  0  0  0  0
   -6.7625    9.3190   -0.1788 C   0  0  0  0  0  0  0  0  0  0  0  0
   -7.5266    9.2222   -1.3094 C   0  0  0  0  0  0  0  0  0  0  0  0
   -8.4795    8.2292   -1.4625 C   0  0  0  0  0  0  0  0  0  0  0  0
   -9.2388    8.2363   -2.5690 O   0  0  0  0  0  0  0  0  0  0  0  0
   -8.6391    7.3042   -0.4761 C   0  0  0  0  0  0  0  0  0  0  0  0
   -9.1010    8.8884   -3.2276 H   0  0  0  0  0  0  0  0  0  0  0  0
   -7.3763    5.1656    1.3424 C   0  0  0  0  0  0  0  0  0  0  0  0
   -7.9621    6.4170    1.5997 O   0  0  0  0  0  0  0  0  0  0  0  0
   -7.3048   10.2427   -2.3879 C   0  0  0  0  0  0  0  0  0  0  0  0
   -8.2025   10.9979   -2.6395 O   0  0  0  0  0  0  0  0  0  0  0  0
   -6.0332   10.4135   -3.0289 C   0  0  0  0  0  0  0  0  0  0  0  0
   -5.5265    9.3283   -3.7049 C   0  0  0  0  0  0  0  0  0  0  0  0
   -4.2787    9.4354   -4.2772 C   0  0  0  0  0  0  0  0  0  0  0  0
   -3.5921   10.6209   -4.1689 C   0  0  0  0  0  0  0  0  0  0  0  0
   -4.0733   11.6460   -3.5084 C   0  0  0  0  0  0  0  0  0  0  0  0
   -5.3268   11.5464   -2.9418 C   0  0  0  0  0  0  0  0  0  0  0  0
 10  9  1  0
  1 10  1  0
  2  1  1  0
  3  2  2  0
  4  3  1  0
 11  4  1  0
 12 11  2  0
 13 11  1  0
 14 13  2  0
 15 14  1  0
 16 15  2  0
 17 16  1  0
 18 17  2  0
 18 13  1  0
  5  4  2  0
  6  5  1  0
  7  5  1  0
  7  1  2  0
  6  8  1  0
M  END
> <structure>
bgox31_2

> <pose>
6

> <is_reference>
0

> <rmsd_to_reference_A>
7.515

> <vina_score>
-3.8

> <minimizedAffinity>
-3.84565

> <minimizedRMSD>
0.09043

> <CNNscore>
0.7758126259

> <CNNaffinity>
4.7970089912

> <CNN_VS>
3.7215800285

> <CNNaffinity_variance>
0.3549699783

$$$$
bgox31_2_pose7


 18 19  0  0  0  0  0  0  0  0999 V2000
   -8.9424   -1.8092   -4.0946 C   0  0  0  0  0  0  0  0  0  0  0  0
   -9.1232   -2.1761   -2.7580 C   0  0  0  0  0  0  0  0  0  0  0  0
   -9.5111   -1.2410   -1.8317 C   0  0  0  0  0  0  0  0  0  0  0  0
   -9.7199    0.0433   -2.2515 C   0  0  0  0  0  0  0  0  0  0  0  0
   -9.5890    0.4070   -3.5819 C   0  0  0  0  0  0  0  0  0  0  0  0
   -9.8760    1.6704   -3.9308 O   0  0  0  0  0  0  0  0  0  0  0  0
   -9.2089   -0.5318   -4.4922 C   0  0  0  0  0  0  0  0  0  0  0  0
  -10.1343    2.2899   -3.2770 H   0  0  0  0  0  0  0  0  0  0  0  0
   -7.2375   -3.2697   -4.7525 C   0  0  0  0  0  0  0  0  0  0  0  0
   -8.5214   -2.7353   -4.9648 O   0  0  0  0  0  0  0  0  0  0  0  0
  -10.1119    1.0581   -1.2167 C   0  0  0  0  0  0  0  0  0  0  0  0
  -11.2789    1.3023   -1.0828 O   0  0  0  0  0  0  0  0  0  0  0  0
   -9.1569    1.6415   -0.3199 C   0  0  0  0  0  0  0  0  0  0  0  0
   -8.8852    2.9800   -0.4844 C   0  0  0  0  0  0  0  0  0  0  0  0
   -7.9258    3.5581    0.3164 C   0  0  0  0  0  0  0  0  0  0  0  0
   -7.2889    2.7892    1.2599 C   0  0  0  0  0  0  0  0  0  0  0  0
   -7.5399    1.5098    1.4002 C   0  0  0  0  0  0  0  0  0  0  0  0
   -8.5064    0.9286    0.6063 C   0  0  0  0  0  0  0  0  0  0  0  0
 10  9  1  0
  1 10  1  0
  2  1  1  0
  3  2  2  0
  4  3  1  0
 11  4  1  0
 12 11  2  0
 13 11  1  0
 14 13  2  0
 15 14  1  0
 16 15  2  0
 17 16  1  0
 18 17  2  0
 18 13  1  0
  5  4  2  0
  6  5  1  0
  7  5  1  0
  7  1  2  0
  6  8  1  0
M  END
> <structure>
bgox31_2

> <pose>
7

> <is_reference>
0

> <rmsd_to_reference_A>
6.005

> <vina_score>
-3.8

> <minimizedAffinity>
-4.04567

> <minimizedRMSD>
0.17757

> <CNNscore>
0.6392096877

> <CNNaffinity>
3.5573074818

> <CNN_VS>
2.2738654613

> <CNNaffinity_variance>
0.2478629202

$$$$
bgox31_2_pose8


 18 19  0  0  0  0  0  0  0  0999 V2000
  -11.0563   10.4949   -2.4624 C   0  0  0  0  0  0  0  0  0  0  0  0
  -10.2389   11.6262   -2.3860 C   0  0  0  0  0  0  0  0  0  0  0  0
   -8.8897   11.4884   -2.1777 C   0  0  0  0  0  0  0  0  0  0  0  0
   -8.3738   10.2275   -2.0576 C   0  0  0  0  0  0  0  0  0  0  0  0
   -9.1677    9.0996   -2.1793 C   0  0  0  0  0  0  0  0  0  0  0  0
   -8.5815    7.8942   -2.1173 O   0  0  0  0  0  0  0  0  0  0  0  0
  -10.5047    9.2492   -2.3909 C   0  0  0  0  0  0  0  0  0  0  0  0
   -7.6584    7.8292   -1.9702 H   0  0  0  0  0  0  0  0  0  0  0  0
  -12.8090   11.9477   -2.9999 C   0  0  0  0  0  0  0  0  0  0  0  0
  -12.3745   10.6645   -2.6223 O   0  0  0  0  0  0  0  0  0  0  0  0
   -6.8999   10.1010   -1.7977 C   0  0  0  0  0  0  0  0  0  0  0  0
   -6.5528    9.6591   -0.7378 O   0  0  0  0  0  0  0  0  0  0  0  0
   -5.9198   10.3748   -2.8081 C   0  0  0  0  0  0  0  0  0  0  0  0
   -5.5321    9.3201   -3.6010 C   0  0  0  0  0  0  0  0  0  0  0  0
   -4.5460    9.5321   -4.5393 C   0  0  0  0  0  0  0  0  0  0  0  0
   -3.9986   10.7863   -4.6623 C   0  0  0  0  0  0  0  0  0  0  0  0
   -4.3600   11.7836   -3.8915 C   0  0  0  0  0  0  0  0  0  0  0  0
   -5.3531   11.5777   -2.9581 C   0  0  0  0  0  0  0  0  0  0  0  0
 10  9  1  0
  1 10  1  0
  2  1  1  0
  3  2  2  0
  4  3  1  0
 11  4  1  0
 12 11  2  0
 13 11  1  0
 14 13  2  0
 15 14  1  0
 16 15  2  0
 17 16  1  0
 18 17  2  0
 18 13  1  0
  5  4  2  0
  6  5  1  0
  7  5  1  0
  7  1  2  0
  6  8  1  0
M  END
> <structure>
bgox31_2

> <pose>
8

> <is_reference>
0

> <rmsd_to_reference_A>
9.022

> <vina_score>
-3.7

> <minimizedAffinity>
-3.87067

> <minimizedRMSD>
0.15051

> <CNNscore>
0.7121341825

> <CNNaffinity>
4.5297570229

> <CNN_VS>
3.2257947922

> <CNNaffinity_variance>
0.1657858640

$$$$
bgox31_2_pose9


 18 19  0  0  0  0  0  0  0  0999 V2000
   -6.1252    3.2889    1.6389 C   0  0  0  0  0  0  0  0  0  0  0  0
   -6.4079    1.9365    1.8561 C   0  0  0  0  0  0  0  0  0  0  0  0
   -7.5382    1.3734    1.3194 C   0  0  0  0  0  0  0  0  0  0  0  0
   -8.3661    2.1614    0.5694 C   0  0  0  0  0  0  0  0  0  0  0  0
   -8.0707    3.4899    0.3094 C   0  0  0  0  0  0  0  0  0  0  0  0
   -8.8949    4.1841   -0.4897 O   0  0  0  0  0  0  0  0  0  0  0  0
   -6.9433    4.0361    0.8437 C   0  0  0  0  0  0  0  0  0  0  0  0
   -9.6622    3.7757   -0.8397 H   0  0  0  0  0  0  0  0  0  0  0  0
   -4.8069    5.1878    1.9921 C   0  0  0  0  0  0  0  0  0  0  0  0
   -5.0380    3.8186    2.2137 O   0  0  0  0  0  0  0  0  0  0  0  0
   -9.6139    1.5334    0.0191 C   0  0  0  0  0  0  0  0  0  0  0  0
  -10.6673    1.8861    0.4728 O   0  0  0  0  0  0  0  0  0  0  0  0
   -9.5874    0.6316   -1.0951 C   0  0  0  0  0  0  0  0  0  0  0  0
   -9.7464    1.1818   -2.3455 C   0  0  0  0  0  0  0  0  0  0  0  0
   -9.7900    0.3386   -3.4340 C   0  0  0  0  0  0  0  0  0  0  0  0
   -9.6583   -1.0152   -3.2361 C   0  0  0  0  0  0  0  0  0  0  0  0
   -9.5243   -1.5354   -2.0398 C   0  0  0  0  0  0  0  0  0  0  0  0
   -9.4706   -0.6938   -0.9493 C   0  0  0  0  0  0  0  0  0  0  0  0
 10  9  1  0
  1 10  1  0
  2  1  1  0
  3  2  2  0
  4  3  1  0
 11  4  1  0
 12 11  2  0
 13 11  1  0
 14 13  2  0
 15 14  1  0
 16 15  2  0
 17 16  1  0
 18 17  2  0
 18 13  1  0
  5  4  2  0
  6  5  1  0
  7  5  1  0
  7  1  2  0
  6  8  1  0
M  END
> <structure>
bgox31_2

> <pose>
9

> <is_reference>
0

> <rmsd_to_reference_A>
6.354

> <vina_score>
-3.7

> <minimizedAffinity>
-3.87247

> <minimizedRMSD>
0.28912

> <CNNscore>
0.8281360865

> <CNNaffinity>
3.8199260235

> <CNN_VS>
3.1634185314

> <CNNaffinity_variance>
0.0309323724

$$$$
