ox1_orig_f12_pose0_reference


 18 19  0  0  0  0  0  0  0  0999 V2000
    2.0161   -0.2248   -2.7841 C   0  0  0  0  0  0  0  0  0  0  0  0
    0.8241   -0.6599   -2.2148 C   0  0  0  0  0  0  0  0  0  0  0  0
   -0.0178    0.2505   -1.5915 C   0  0  0  0  0  0  0  0  0  0  0  0
    0.3240    1.5982   -1.5193 C   0  0  0  0  0  0  0  0  0  0  0  0
    1.5141    2.0279   -2.0964 C   0  0  0  0  0  0  0  0  0  0  0  0
    1.8358    3.3444   -2.0352 O   0  0  0  0  0  0  0  0  0  0  0  0
    2.3475    1.1178   -2.7263 C   0  0  0  0  0  0  0  0  0  0  0  0
    1.2617    3.9476   -1.6056 H   0  0  0  0  0  0  0  0  0  0  0  0
    4.2189   -1.0707   -3.2473 C   0  0  0  0  0  0  0  0  0  0  0  0
    2.8192   -1.1561   -3.3864 O   0  0  0  0  0  0  0  0  0  0  0  0
   -0.5751    2.6041   -0.8514 C   0  0  0  0  0  0  0  0  0  0  0  0
   -0.4927    3.7625   -1.2040 O   0  0  0  0  0  0  0  0  0  0  0  0
   -1.5737    2.2399    0.1798 C   0  0  0  0  0  0  0  0  0  0  0  0
   -1.2525    1.4100    1.2463 C   0  0  0  0  0  0  0  0  0  0  0  0
   -2.1999    1.0797    2.1886 C   0  0  0  0  0  0  0  0  0  0  0  0
   -3.4895    1.5762    2.0821 C   0  0  0  0  0  0  0  0  0  0  0  0
   -3.8221    2.4218    1.0327 C   0  0  0  0  0  0  0  0  0  0  0  0
   -2.8651    2.7770    0.0855 C   0  0  0  0  0  0  0  0  0  0  0  0
 10  9  1  0
  1 10  1  0
  2  1  1  0
  3  2  2  0
  4  3  1  0
 11  4  1  0
 12 11  2  0
 13 11  1  0
 14 13  2  0
 15 14  1  0
 16 15  2  0
 17 16  1  0
 18 17  2  0
 18 13  1  0
  5  4  2  0
  6  5  1  0
  7  5  1  0
  7  1  2  0
  6  8  1  0
M  END
> <structure>
ox1_orig_f12

> <pose>
0

> <is_reference>
1

> <rmsd_to_reference_A>
0.000

> <vina_score>


> <minimizedAffinity>
-4.66116

> <minimizedRMSD>
0.66050

> <CNNscore>
0.8209529519

> <CNNaffinity>
3.2485558987

> <CNN_VS>
2.6669116020

> <CNNaffinity_variance>
0.8071295619

$$$$
ox1_orig_f12_pose1


 18 19  0  0  0  0  0  0  0  0999 V2000
   -4.1953    1.2995    1.9226 C   0  0  0  0  0  0  0  0  0  0  0  0
   -2.9349    0.7502    2.1310 C   0  0  0  0  0  0  0  0  0  0  0  0
   -1.8309    1.2824    1.4798 C   0  0  0  0  0  0  0  0  0  0  0  0
   -1.9730    2.3588    0.6084 C   0  0  0  0  0  0  0  0  0  0  0  0
   -3.2346    2.9082    0.4090 C   0  0  0  0  0  0  0  0  0  0  0  0
   -3.3661    3.9653   -0.4308 O   0  0  0  0  0  0  0  0  0  0  0  0
   -4.3329    2.3803    1.0683 C   0  0  0  0  0  0  0  0  0  0  0  0
   -2.6140    4.3114   -0.8696 H   0  0  0  0  0  0  0  0  0  0  0  0
   -6.5667    1.1779    2.2973 C   0  0  0  0  0  0  0  0  0  0  0  0
   -5.2571    0.7421    2.5821 O   0  0  0  0  0  0  0  0  0  0  0  0
   -0.7897    2.9549   -0.1064 C   0  0  0  0  0  0  0  0  0  0  0  0
   -0.5013    4.1085    0.1374 O   0  0  0  0  0  0  0  0  0  0  0  0
    0.0535    2.1926   -1.0556 C   0  0  0  0  0  0  0  0  0  0  0  0
   -0.0084    0.8073   -1.1353 C   0  0  0  0  0  0  0  0  0  0  0  0
    0.7905    0.1195   -2.0202 C   0  0  0  0  0  0  0  0  0  0  0  0
    1.6674    0.8061   -2.8455 C   0  0  0  0  0  0  0  0  0  0  0  0
    1.7273    2.1924   -2.7908 C   0  0  0  0  0  0  0  0  0  0  0  0
    0.9092    2.8981   -1.9128 C   0  0  0  0  0  0  0  0  0  0  0  0
 10  9  1  0
  1 10  1  0
  2  1  1  0
  3  2  2  0
  4  3  1  0
 11  4  1  0
 12 11  2  0
 13 11  1  0
 14 13  2  0
 15 14  1  0
 16 15  2  0
 17 16  1  0
 18 17  2  0
 18 13  1  0
  5  4  2  0
  6  5  1  0
  7  5  1  0
  7  1  2  0
  6  8  1  0
M  END
> <structure>
ox1_orig_f12

> <pose>
1

> <is_reference>
0

> <rmsd_to_reference_A>
6.160

> <vina_score>
-5.8

> <minimizedAffinity>
-5.91454

> <minimizedRMSD>
0.10403

> <CNNscore>
0.6702600718

> <CNNaffinity>
3.3583123684

> <CNN_VS>
2.2509427071

> <CNNaffinity_variance>
0.5856071115

$$$$
ox1_orig_f12_pose2


 18 19  0  0  0  0  0  0  0  0999 V2000
   -2.6015    1.8819    0.7080 C   0  0  0  0  0  0  0  0  0  0  0  0
   -3.5336    0.9040    0.3786 C   0  0  0  0  0  0  0  0  0  0  0  0
   -4.7602    0.8709    1.0271 C   0  0  0  0  0  0  0  0  0  0  0  0
   -5.0647    1.8019    2.0160 C   0  0  0  0  0  0  0  0  0  0  0  0
   -4.1311    2.7818    2.3354 C   0  0  0  0  0  0  0  0  0  0  0  0
   -4.4385    3.6956    3.2894 O   0  0  0  0  0  0  0  0  0  0  0  0
   -2.9118    2.8182    1.6787 C   0  0  0  0  0  0  0  0  0  0  0  0
   -5.2674    3.6577    3.7247 H   0  0  0  0  0  0  0  0  0  0  0  0
   -0.8849    3.0786   -0.4766 C   0  0  0  0  0  0  0  0  0  0  0  0
   -1.4025    1.8777    0.0460 O   0  0  0  0  0  0  0  0  0  0  0  0
   -6.3898    1.7872    2.7294 C   0  0  0  0  0  0  0  0  0  0  0  0
   -6.7344    2.7967    3.3088 O   0  0  0  0  0  0  0  0  0  0  0  0
   -7.3009    0.6202    2.7251 C   0  0  0  0  0  0  0  0  0  0  0  0
   -7.2195   -0.3732    3.6924 C   0  0  0  0  0  0  0  0  0  0  0  0
   -8.0724   -1.4538    3.6631 C   0  0  0  0  0  0  0  0  0  0  0  0
   -9.0260   -1.5590    2.6622 C   0  0  0  0  0  0  0  0  0  0  0  0
   -9.1333   -0.5664    1.6984 C   0  0  0  0  0  0  0  0  0  0  0  0
   -8.2872    0.5392    1.7324 C   0  0  0  0  0  0  0  0  0  0  0  0
 10  9  1  0
  1 10  1  0
  2  1  1  0
  3  2  2  0
  4  3  1  0
 11  4  1  0
 12 11  2  0
 13 11  1  0
 14 13  2  0
 15 14  1  0
 16 15  2  0
 17 16  1  0
 18 17  2  0
 18 13  1  0
  5  4  2  0
  6  5  1  0
  7  5  1  0
  7  1  2  0
  6  8  1  0
M  END
> <structure>
ox1_orig_f12

> <pose>
2

> <is_reference>
0

> <rmsd_to_reference_A>
6.313

> <vina_score>
-5.6

> <minimizedAffinity>
-5.44301

> <minimizedRMSD>
0.17847

> <CNNscore>
0.1990245134

> <CNNaffinity>
2.9651288986

> <CNN_VS>
0.5901333094

> <CNNaffinity_variance>
0.8514238000

$$$$
ox1_orig_f12_pose3


 18 19  0  0  0  0  0  0  0  0999 V2000
    0.8838    2.4094   -2.2661 C   0  0  0  0  0  0  0  0  0  0  0  0
    0.2674    3.2386   -1.3346 C   0  0  0  0  0  0  0  0  0  0  0  0
   -0.5364    2.6895   -0.3448 C   0  0  0  0  0  0  0  0  0  0  0  0
   -0.7428    1.3141   -0.2806 C   0  0  0  0  0  0  0  0  0  0  0  0
   -0.1174    0.4899   -1.2109 C   0  0  0  0  0  0  0  0  0  0  0  0
   -0.3111   -0.8506   -1.1362 O   0  0  0  0  0  0  0  0  0  0  0  0
    0.6923    1.0409   -2.1917 C   0  0  0  0  0  0  0  0  0  0  0  0
   -0.8615   -1.2079   -0.4673 H   0  0  0  0  0  0  0  0  0  0  0  0
    2.7907    2.3069   -3.7274 C   0  0  0  0  0  0  0  0  0  0  0  0
    1.6662    2.9921   -3.2268 O   0  0  0  0  0  0  0  0  0  0  0  0
   -1.6072    0.6960    0.7848 C   0  0  0  0  0  0  0  0  0  0  0  0
   -1.2403   -0.3499    1.2792 O   0  0  0  0  0  0  0  0  0  0  0  0
   -2.8544    1.3220    1.2809 C   0  0  0  0  0  0  0  0  0  0  0  0
   -4.0981    0.9829    0.7613 C   0  0  0  0  0  0  0  0  0  0  0  0
   -5.2427    1.5836    1.2333 C   0  0  0  0  0  0  0  0  0  0  0  0
   -5.1654    2.5354    2.2372 C   0  0  0  0  0  0  0  0  0  0  0  0
   -3.9330    2.8717    2.7806 C   0  0  0  0  0  0  0  0  0  0  0  0
   -2.7709    2.2549    2.3231 C   0  0  0  0  0  0  0  0  0  0  0  0
 10  9  1  0
  1 10  1  0
  2  1  1  0
  3  2  2  0
  4  3  1  0
 11  4  1  0
 12 11  2  0
 13 11  1  0
 14 13  2  0
 15 14  1  0
 16 15  2  0
 17 16  1  0
 18 17  2  0
 18 13  1  0
  5  4  2  0
  6  5  1  0
  7  5  1  0
  7  1  2  0
  6  8  1  0
M  END
> <structure>
ox1_orig_f12

> <pose>
3

> <is_reference>
0

> <rmsd_to_reference_A>
2.899

> <vina_score>
-5.6

> <minimizedAffinity>
-5.63002

> <minimizedRMSD>
0.15814

> <CNNscore>
0.4052545130

> <CNNaffinity>
3.0438117981

> <CNN_VS>
1.2335184813

> <CNNaffinity_variance>
0.9942154288

$$$$
ox1_orig_f12_pose4


 18 19  0  0  0  0  0  0  0  0999 V2000
   -4.4891    2.6173    2.2859 C   0  0  0  0  0  0  0  0  0  0  0  0
   -4.5246    2.5888    0.8954 C   0  0  0  0  0  0  0  0  0  0  0  0
   -3.5278    1.9265    0.1922 C   0  0  0  0  0  0  0  0  0  0  0  0
   -2.4838    1.2968    0.8642 C   0  0  0  0  0  0  0  0  0  0  0  0
   -2.4583    1.3233    2.2540 C   0  0  0  0  0  0  0  0  0  0  0  0
   -1.4448    0.6976    2.9037 O   0  0  0  0  0  0  0  0  0  0  0  0
   -3.4592    1.9775    2.9533 C   0  0  0  0  0  0  0  0  0  0  0  0
   -0.7754    0.2595    2.4159 H   0  0  0  0  0  0  0  0  0  0  0  0
   -5.3325    4.6482    3.2584 C   0  0  0  0  0  0  0  0  0  0  0  0
   -5.4891    3.2845    2.9412 O   0  0  0  0  0  0  0  0  0  0  0  0
   -1.3938    0.5706    0.1218 C   0  0  0  0  0  0  0  0  0  0  0  0
   -1.3449   -0.6380    0.2241 O   0  0  0  0  0  0  0  0  0  0  0  0
   -0.4132    1.2534   -0.7522 C   0  0  0  0  0  0  0  0  0  0  0  0
    0.4862    0.5425   -1.5366 C   0  0  0  0  0  0  0  0  0  0  0  0
    1.3939    1.2008   -2.3344 C   0  0  0  0  0  0  0  0  0  0  0  0
    1.4185    2.5862   -2.3646 C   0  0  0  0  0  0  0  0  0  0  0  0
    0.5145    3.3118   -1.6015 C   0  0  0  0  0  0  0  0  0  0  0  0
   -0.4202    2.6540   -0.8054 C   0  0  0  0  0  0  0  0  0  0  0  0
 10  9  1  0
  1 10  1  0
  2  1  1  0
  3  2  2  0
  4  3  1  0
 11  4  1  0
 12 11  2  0
 13 11  1  0
 14 13  2  0
 15 14  1  0
 16 15  2  0
 17 16  1  0
 18 17  2  0
 18 13  1  0
  5  4  2  0
  6  5  1  0
  7  5  1  0
  7  1  2  0
  6  8  1  0
M  END
> <structure>
ox1_orig_f12

> <pose>
4

> <is_reference>
0

> <rmsd_to_reference_A>
6.622

> <vina_score>
-5.1

> <minimizedAffinity>
-5.12252

> <minimizedRMSD>
0.07757

> <CNNscore>
0.6844183803

> <CNNaffinity>
3.7326443195

> <CNN_VS>
2.5546903610

> <CNNaffinity_variance>
0.3911994696

$$$$
ox1_orig_f12_pose5


 18 19  0  0  0  0  0  0  0  0999 V2000
   -8.9511    1.2258    7.5012 C   0  0  0  0  0  0  0  0  0  0  0  0
   -8.2806    0.0111    7.4085 C   0  0  0  0  0  0  0  0  0  0  0  0
   -7.8640   -0.4565    6.1694 C   0  0  0  0  0  0  0  0  0  0  0  0
   -8.1209    0.2756    5.0129 C   0  0  0  0  0  0  0  0  0  0  0  0
   -8.7854    1.4924    5.1135 C   0  0  0  0  0  0  0  0  0  0  0  0
   -9.0215    2.2076    3.9855 O   0  0  0  0  0  0  0  0  0  0  0  0
   -9.1909    1.9601    6.3534 C   0  0  0  0  0  0  0  0  0  0  0  0
   -8.7411    1.8780    3.1544 H   0  0  0  0  0  0  0  0  0  0  0  0
   -8.6980    1.1557    9.8922 C   0  0  0  0  0  0  0  0  0  0  0  0
   -9.3470    1.6486    8.7427 O   0  0  0  0  0  0  0  0  0  0  0  0
   -7.6754   -0.2099    3.6591 C   0  0  0  0  0  0  0  0  0  0  0  0
   -6.7092    0.3222    3.1542 O   0  0  0  0  0  0  0  0  0  0  0  0
   -8.3363   -1.3237    2.9402 C   0  0  0  0  0  0  0  0  0  0  0  0
   -8.1321   -2.6487    3.3019 C   0  0  0  0  0  0  0  0  0  0  0  0
   -8.7510   -3.6680    2.6131 C   0  0  0  0  0  0  0  0  0  0  0  0
   -9.5893   -3.3782    1.5477 C   0  0  0  0  0  0  0  0  0  0  0  0
   -9.8186   -2.0580    1.1850 C   0  0  0  0  0  0  0  0  0  0  0  0
   -9.2115   -1.0206    1.8888 C   0  0  0  0  0  0  0  0  0  0  0  0
 10  9  1  0
  1 10  1  0
  2  1  1  0
  3  2  2  0
  4  3  1  0
 11  4  1  0
 12 11  2  0
 13 11  1  0
 14 13  2  0
 15 14  1  0
 16 15  2  0
 17 16  1  0
 18 17  2  0
 18 13  1  0
  5  4  2  0
  6  5  1  0
  7  5  1  0
  7  1  2  0
  6  8  1  0
M  END
> <structure>
ox1_orig_f12

> <pose>
5

> <is_reference>
0

> <rmsd_to_reference_A>
11.532

> <vina_score>
-4.6

> <minimizedAffinity>
-4.55436

> <minimizedRMSD>
0.06586

> <CNNscore>
0.3162744045

> <CNNaffinity>
2.9556169510

> <CNN_VS>
0.9347859621

> <CNNaffinity_variance>
0.4801019430

$$$$
ox1_orig_f12_pose6


 18 19  0  0  0  0  0  0  0  0999 V2000
   -9.9660   -2.6257    0.9664 C   0  0  0  0  0  0  0  0  0  0  0  0
   -9.2377   -3.1895    2.0082 C   0  0  0  0  0  0  0  0  0  0  0  0
   -8.5207   -2.3737    2.8727 C   0  0  0  0  0  0  0  0  0  0  0  0
   -8.5148   -0.9926    2.7021 C   0  0  0  0  0  0  0  0  0  0  0  0
   -9.2513   -0.4346    1.6624 C   0  0  0  0  0  0  0  0  0  0  0  0
   -9.2520    0.9134    1.5085 O   0  0  0  0  0  0  0  0  0  0  0  0
   -9.9731   -1.2514    0.8070 C   0  0  0  0  0  0  0  0  0  0  0  0
   -8.7587    1.4522    2.0952 H   0  0  0  0  0  0  0  0  0  0  0  0
  -10.2885   -4.8241    0.0469 C   0  0  0  0  0  0  0  0  0  0  0  0
  -10.6561   -3.4667    0.1350 O   0  0  0  0  0  0  0  0  0  0  0  0
   -7.7482   -0.0870    3.6291 C   0  0  0  0  0  0  0  0  0  0  0  0
   -6.7350    0.4318    3.2069 O   0  0  0  0  0  0  0  0  0  0  0  0
   -8.1910    0.2249    5.0068 C   0  0  0  0  0  0  0  0  0  0  0  0
   -7.7769   -0.5306    6.0958 C   0  0  0  0  0  0  0  0  0  0  0  0
   -8.2087   -0.2253    7.3674 C   0  0  0  0  0  0  0  0  0  0  0  0
   -9.0642    0.8457    7.5720 C   0  0  0  0  0  0  0  0  0  0  0  0
   -9.4727    1.6221    6.4969 C   0  0  0  0  0  0  0  0  0  0  0  0
   -9.0256    1.3324    5.2102 C   0  0  0  0  0  0  0  0  0  0  0  0
 10  9  1  0
  1 10  1  0
  2  1  1  0
  3  2  2  0
  4  3  1  0
 11  4  1  0
 12 11  2  0
 13 11  1  0
 14 13  2  0
 15 14  1  0
 16 15  2  0
 17 16  1  0
 18 17  2  0
 18 13  1  0
  5  4  2  0
  6  5  1  0
  7  5  1  0
  7  1  2  0
  6  8  1  0
M  END
> <structure>
ox1_orig_f12

> <pose>
6

> <is_reference>
0

> <rmsd_to_reference_A>
10.437

> <vina_score>
-4.6

> <minimizedAffinity>
-4.47307

> <minimizedRMSD>
0.13277

> <CNNscore>
0.4996229112

> <CNNaffinity>
3.6173207760

> <CNN_VS>
1.8072963953

> <CNNaffinity_variance>
0.2523468733

$$$$
ox1_orig_f12_pose7


 18 19  0  0  0  0  0  0  0  0999 V2000
   -9.3018   -2.2935    1.9675 C   0  0  0  0  0  0  0  0  0  0  0  0
   -8.5267   -2.3497    3.1218 C   0  0  0  0  0  0  0  0  0  0  0  0
   -8.0640   -3.5726    3.5851 C   0  0  0  0  0  0  0  0  0  0  0  0
   -8.3773   -4.7508    2.9123 C   0  0  0  0  0  0  0  0  0  0  0  0
   -9.1474   -4.6876    1.7558 C   0  0  0  0  0  0  0  0  0  0  0  0
   -9.4387   -5.8364    1.0972 O   0  0  0  0  0  0  0  0  0  0  0  0
   -9.5991   -3.4628    1.2904 C   0  0  0  0  0  0  0  0  0  0  0  0
   -9.1258   -6.6565    1.4248 H   0  0  0  0  0  0  0  0  0  0  0  0
   -8.9275    0.0695    1.7284 C   0  0  0  0  0  0  0  0  0  0  0  0
   -9.7403   -1.0664    1.5470 O   0  0  0  0  0  0  0  0  0  0  0  0
   -7.8843   -6.0890    3.3956 C   0  0  0  0  0  0  0  0  0  0  0  0
   -8.6738   -6.8158    3.9612 O   0  0  0  0  0  0  0  0  0  0  0  0
   -6.4999   -6.5693    3.1768 C   0  0  0  0  0  0  0  0  0  0  0  0
   -5.4538   -6.1796    4.0027 C   0  0  0  0  0  0  0  0  0  0  0  0
   -4.1741   -6.6333    3.7755 C   0  0  0  0  0  0  0  0  0  0  0  0
   -3.9178   -7.4890    2.7162 C   0  0  0  0  0  0  0  0  0  0  0  0
   -4.9552   -7.9028    1.8928 C   0  0  0  0  0  0  0  0  0  0  0  0
   -6.2561   -7.4650    2.1266 C   0  0  0  0  0  0  0  0  0  0  0  0
 10  9  1  0
  1 10  1  0
  2  1  1  0
  3  2  2  0
  4  3  1  0
 11  4  1  0
 12 11  2  0
 13 11  1  0
 14 13  2  0
 15 14  1  0
 16 15  2  0
 17 16  1  0
 18 17  2  0
 18 13  1  0
  5  4  2  0
  6  5  1  0
  7  5  1  0
  7  1  2  0
  6  8  1  0
M  END
> <structure>
ox1_orig_f12

> <pose>
7

> <is_reference>
0

> <rmsd_to_reference_A>
11.614

> <vina_score>
-4.4

> <minimizedAffinity>
-4.26781

> <minimizedRMSD>
0.06723

> <CNNscore>
0.6817017794

> <CNNaffinity>
3.7525768280

> <CNN_VS>
2.5581383705

> <CNNaffinity_variance>
0.1218267903

$$$$
ox1_orig_f12_pose8


 18 19  0  0  0  0  0  0  0  0999 V2000
   -1.7146    0.5321    0.6678 C   0  0  0  0  0  0  0  0  0  0  0  0
   -1.0774   -0.2194   -0.3137 C   0  0  0  0  0  0  0  0  0  0  0  0
   -0.1809    0.3907   -1.1801 C   0  0  0  0  0  0  0  0  0  0  0  0
    0.0815    1.7545   -1.0849 C   0  0  0  0  0  0  0  0  0  0  0  0
   -0.5547    2.4999   -0.0964 C   0  0  0  0  0  0  0  0  0  0  0  0
   -0.2858    3.8258    0.0005 O   0  0  0  0  0  0  0  0  0  0  0  0
   -1.4411    1.8849    0.7720 C   0  0  0  0  0  0  0  0  0  0  0  0
    0.3165    4.2264   -0.5950 H   0  0  0  0  0  0  0  0  0  0  0  0
   -3.6086    0.6251    2.1457 C   0  0  0  0  0  0  0  0  0  0  0  0
   -2.5934   -0.1075    1.4990 O   0  0  0  0  0  0  0  0  0  0  0  0
    1.0527    2.4371   -2.0109 C   0  0  0  0  0  0  0  0  0  0  0  0
    1.0197    3.6485   -2.0755 O   0  0  0  0  0  0  0  0  0  0  0  0
    2.0622    1.7050   -2.8093 C   0  0  0  0  0  0  0  0  0  0  0  0
    2.4481    0.4104   -2.4867 C   0  0  0  0  0  0  0  0  0  0  0  0
    3.3946   -0.2478   -3.2395 C   0  0  0  0  0  0  0  0  0  0  0  0
    3.9721    0.3789   -4.3331 C   0  0  0  0  0  0  0  0  0  0  0  0
    3.5840    1.6654   -4.6795 C   0  0  0  0  0  0  0  0  0  0  0  0
    2.6131    2.3319   -3.9354 C   0  0  0  0  0  0  0  0  0  0  0  0
 10  9  1  0
  1 10  1  0
  2  1  1  0
  3  2  2  0
  4  3  1  0
 11  4  1  0
 12 11  2  0
 13 11  1  0
 14 13  2  0
 15 14  1  0
 16 15  2  0
 17 16  1  0
 18 17  2  0
 18 13  1  0
  5  4  2  0
  6  5  1  0
  7  5  1  0
  7  1  2  0
  6  8  1  0
M  END
> <structure>
ox1_orig_f12

> <pose>
8

> <is_reference>
0

> <rmsd_to_reference_A>
5.937

> <vina_score>
-4.4

> <minimizedAffinity>
-5.09023

> <minimizedRMSD>
0.06861

> <CNNscore>
0.8095069528

> <CNNaffinity>
3.4126713276

> <CNN_VS>
2.7625811100

> <CNNaffinity_variance>
0.9237602353

$$$$
ox1_orig_f12_pose9


 18 19  0  0  0  0  0  0  0  0999 V2000
   -3.8169   -7.4939    2.8724 C   0  0  0  0  0  0  0  0  0  0  0  0
   -4.1354   -6.6080    3.8963 C   0  0  0  0  0  0  0  0  0  0  0  0
   -5.4449   -6.1776    4.0568 C   0  0  0  0  0  0  0  0  0  0  0  0
   -6.4451   -6.6141    3.1926 C   0  0  0  0  0  0  0  0  0  0  0  0
   -6.1214   -7.5050    2.1745 C   0  0  0  0  0  0  0  0  0  0  0  0
   -7.1023   -7.9379    1.3442 O   0  0  0  0  0  0  0  0  0  0  0  0
   -4.8148   -7.9407    2.0240 C   0  0  0  0  0  0  0  0  0  0  0  0
   -7.9812   -7.6340    1.4589 H   0  0  0  0  0  0  0  0  0  0  0  0
   -1.6723   -7.9068    3.8802 C   0  0  0  0  0  0  0  0  0  0  0  0
   -2.5124   -7.8910    2.7485 O   0  0  0  0  0  0  0  0  0  0  0  0
   -7.8728   -6.1625    3.3483 C   0  0  0  0  0  0  0  0  0  0  0  0
   -8.6493   -6.9143    3.9024 O   0  0  0  0  0  0  0  0  0  0  0  0
   -8.3591   -4.8398    2.8946 C   0  0  0  0  0  0  0  0  0  0  0  0
   -8.0511   -3.6738    3.5833 C   0  0  0  0  0  0  0  0  0  0  0  0
   -8.5207   -2.4558    3.1467 C   0  0  0  0  0  0  0  0  0  0  0  0
   -9.3077   -2.3818    2.0084 C   0  0  0  0  0  0  0  0  0  0  0  0
   -9.6099   -3.5347    1.2987 C   0  0  0  0  0  0  0  0  0  0  0  0
   -9.1230   -4.7695    1.7223 C   0  0  0  0  0  0  0  0  0  0  0  0
 10  9  1  0
  1 10  1  0
  2  1  1  0
  3  2  2  0
  4  3  1  0
 11  4  1  0
 12 11  2  0
 13 11  1  0
 14 13  2  0
 15 14  1  0
 16 15  2  0
 17 16  1  0
 18 17  2  0
 18 13  1  0
  5  4  2  0
  6  5  1  0
  7  5  1  0
  7  1  2  0
  6  8  1  0
M  END
> <structure>
ox1_orig_f12

> <pose>
9

> <is_reference>
0

> <rmsd_to_reference_A>
10.899

> <vina_score>
-4.3

> <minimizedAffinity>
-4.26988

> <minimizedRMSD>
0.16440

> <CNNscore>
0.4663271606

> <CNNaffinity>
3.4443538189

> <CNN_VS>
1.6061956882

> <CNNaffinity_variance>
0.2180983573

$$$$
