ox1_esm1_f8_pose0_reference


 18 19  0  0  0  0  0  0  0  0999 V2000
    2.7738   -0.1116   -3.1549 C   0  0  0  0  0  0  0  0  0  0  0  0
    2.8632   -1.4520   -2.7792 C   0  0  0  0  0  0  0  0  0  0  0  0
    3.5970   -1.8155   -1.6589 C   0  0  0  0  0  0  0  0  0  0  0  0
    4.2399   -0.8603   -0.8908 C   0  0  0  0  0  0  0  0  0  0  0  0
    4.1613    0.4966   -1.2670 C   0  0  0  0  0  0  0  0  0  0  0  0
    4.8096    1.4381   -0.5216 O   0  0  0  0  0  0  0  0  0  0  0  0
    3.4259    0.8485   -2.3977 C   0  0  0  0  0  0  0  0  0  0  0  0
    5.2988    1.1812    0.2351 H   0  0  0  0  0  0  0  0  0  0  0  0
    1.9455    1.5433   -4.7351 C   0  0  0  0  0  0  0  0  0  0  0  0
    2.0333    0.1972   -4.2581 O   0  0  0  0  0  0  0  0  0  0  0  0
    5.0172   -1.2608    0.3264 C   0  0  0  0  0  0  0  0  0  0  0  0
    6.0230   -0.6265    0.6338 O   0  0  0  0  0  0  0  0  0  0  0  0
    4.5986   -2.4326    1.1518 C   0  0  0  0  0  0  0  0  0  0  0  0
    5.1914   -3.6335    1.0028 C   0  0  0  0  0  0  0  0  0  0  0  0
    4.8815   -4.7516    1.7556 C   0  0  0  0  0  0  0  0  0  0  0  0
    3.8813   -4.6597    2.6931 C   0  0  0  0  0  0  0  0  0  0  0  0
    3.2347   -3.4444    2.8684 C   0  0  0  0  0  0  0  0  0  0  0  0
    3.5972   -2.3432    2.0926 C   0  0  0  0  0  0  0  0  0  0  0  0
 10  9  1  0
  1 10  1  0
  2  1  1  0
  3  2  2  0
  4  3  1  0
 11  4  1  0
 12 11  2  0
 13 11  1  0
 14 13  2  0
 15 14  1  0
 16 15  2  0
 17 16  1  0
 18 17  2  0
 18 13  1  0
  5  4  2  0
  6  5  1  0
  7  5  1  0
  7  1  2  0
  6  8  1  0
M  END
> <structure>
ox1_esm1_f8

> <pose>
0

> <is_reference>
1

> <rmsd_to_reference_A>
0.000

> <vina_score>


> <minimizedAffinity>
-6.24611

> <minimizedRMSD>
0.64384

> <CNNscore>
0.6976989508

> <CNNaffinity>
4.2073607445

> <CNN_VS>
2.9354710579

> <CNNaffinity_variance>
0.1898141503

$$$$
ox1_esm1_f8_pose1


 18 19  0  0  0  0  0  0  0  0999 V2000
    4.2848   -2.2479    1.7836 C   0  0  0  0  0  0  0  0  0  0  0  0
    4.0643   -2.8549    0.5477 C   0  0  0  0  0  0  0  0  0  0  0  0
    4.1829   -2.1191   -0.6225 C   0  0  0  0  0  0  0  0  0  0  0  0
    4.5310   -0.7802   -0.5862 C   0  0  0  0  0  0  0  0  0  0  0  0
    4.7492   -0.1562    0.6589 C   0  0  0  0  0  0  0  0  0  0  0  0
    5.0751    1.1690    0.6980 O   0  0  0  0  0  0  0  0  0  0  0  0
    4.6212   -0.9049    1.8274 C   0  0  0  0  0  0  0  0  0  0  0  0
    5.1564    1.6551   -0.0989 H   0  0  0  0  0  0  0  0  0  0  0  0
    4.5655   -4.3889    2.9054 C   0  0  0  0  0  0  0  0  0  0  0  0
    4.1659   -3.0154    2.9056 O   0  0  0  0  0  0  0  0  0  0  0  0
    4.6719    0.0028   -1.8570 C   0  0  0  0  0  0  0  0  0  0  0  0
    5.7316    0.5754   -2.0972 O   0  0  0  0  0  0  0  0  0  0  0  0
    3.5338    0.1160   -2.8177 C   0  0  0  0  0  0  0  0  0  0  0  0
    2.5981   -0.8492   -2.9002 C   0  0  0  0  0  0  0  0  0  0  0  0
    1.4990   -0.7960   -3.7396 C   0  0  0  0  0  0  0  0  0  0  0  0
    1.3592    0.2852   -4.5747 C   0  0  0  0  0  0  0  0  0  0  0  0
    2.3091    1.2958   -4.5310 C   0  0  0  0  0  0  0  0  0  0  0  0
    3.3899    1.1991   -3.6557 C   0  0  0  0  0  0  0  0  0  0  0  0
 10  9  1  0
  1 10  1  0
  2  1  1  0
  3  2  2  0
  4  3  1  0
 11  4  1  0
 12 11  2  0
 13 11  1  0
 14 13  2  0
 15 14  1  0
 16 15  2  0
 17 16  1  0
 18 17  2  0
 18 13  1  0
  5  4  2  0
  6  5  1  0
  7  5  1  0
  7  1  2  0
  6  8  1  0
M  END
> <structure>
ox1_esm1_f8

> <pose>
1

> <is_reference>
0

> <rmsd_to_reference_A>
5.838

> <vina_score>
-7.2

> <minimizedAffinity>
-7.42764

> <minimizedRMSD>
0.11274

> <CNNscore>
0.9029783607

> <CNNaffinity>
4.8507838249

> <CNN_VS>
4.3801527023

> <CNNaffinity_variance>
0.3242197037

$$$$
ox1_esm1_f8_pose2


 18 19  0  0  0  0  0  0  0  0999 V2000
    3.6850   -6.0943   -0.1678 C   0  0  0  0  0  0  0  0  0  0  0  0
    2.9153   -5.2603   -0.9792 C   0  0  0  0  0  0  0  0  0  0  0  0
    3.0072   -3.8815   -0.8507 C   0  0  0  0  0  0  0  0  0  0  0  0
    3.8673   -3.3110    0.0719 C   0  0  0  0  0  0  0  0  0  0  0  0
    4.6444   -4.1457    0.9012 C   0  0  0  0  0  0  0  0  0  0  0  0
    5.4796   -3.5854    1.8235 O   0  0  0  0  0  0  0  0  0  0  0  0
    4.5384   -5.5297    0.7660 C   0  0  0  0  0  0  0  0  0  0  0  0
    5.5365   -2.6532    1.8987 H   0  0  0  0  0  0  0  0  0  0  0  0
    4.2835   -8.1214   -1.3738 C   0  0  0  0  0  0  0  0  0  0  0  0
    3.5671   -7.4428   -0.3383 O   0  0  0  0  0  0  0  0  0  0  0  0
    3.9720   -1.8212    0.1927 C   0  0  0  0  0  0  0  0  0  0  0  0
    3.7674   -1.2898    1.2819 O   0  0  0  0  0  0  0  0  0  0  0  0
    4.2952   -0.9760   -0.9951 C   0  0  0  0  0  0  0  0  0  0  0  0
    3.5527   -1.0424   -2.1170 C   0  0  0  0  0  0  0  0  0  0  0  0
    3.7707   -0.2655   -3.2403 C   0  0  0  0  0  0  0  0  0  0  0  0
    4.8317    0.6069   -3.2437 C   0  0  0  0  0  0  0  0  0  0  0  0
    5.6305    0.6969   -2.1129 C   0  0  0  0  0  0  0  0  0  0  0  0
    5.3578   -0.0996   -1.0007 C   0  0  0  0  0  0  0  0  0  0  0  0
 10  9  1  0
  1 10  1  0
  2  1  1  0
  3  2  2  0
  4  3  1  0
 11  4  1  0
 12 11  2  0
 13 11  1  0
 14 13  2  0
 15 14  1  0
 16 15  2  0
 17 16  1  0
 18 17  2  0
 18 13  1  0
  5  4  2  0
  6  5  1  0
  7  5  1  0
  7  1  2  0
  6  8  1  0
M  END
> <structure>
ox1_esm1_f8

> <pose>
2

> <is_reference>
0

> <rmsd_to_reference_A>
5.662

> <vina_score>
-6.8

> <minimizedAffinity>
-6.94770

> <minimizedRMSD>
0.22716

> <CNNscore>
0.2166292965

> <CNNaffinity>
3.3320560455

> <CNN_VS>
0.7218209505

> <CNNaffinity_variance>
0.5480955243

$$$$
ox1_esm1_f8_pose3


 18 19  0  0  0  0  0  0  0  0999 V2000
    3.6980   -6.0955   -0.1593 C   0  0  0  0  0  0  0  0  0  0  0  0
    2.9242   -5.2672   -0.9728 C   0  0  0  0  0  0  0  0  0  0  0  0
    3.0106   -3.8877   -0.8469 C   0  0  0  0  0  0  0  0  0  0  0  0
    3.8694   -3.3116    0.0734 C   0  0  0  0  0  0  0  0  0  0  0  0
    4.6495   -4.1406    0.9049 C   0  0  0  0  0  0  0  0  0  0  0  0
    5.4834   -3.5748    1.8245 O   0  0  0  0  0  0  0  0  0  0  0  0
    4.5500   -5.5244    0.7721 C   0  0  0  0  0  0  0  0  0  0  0  0
    5.5359   -2.6422    1.8981 H   0  0  0  0  0  0  0  0  0  0  0  0
    4.2769   -8.1174   -1.3836 C   0  0  0  0  0  0  0  0  0  0  0  0
    3.5857   -7.4448   -0.3273 O   0  0  0  0  0  0  0  0  0  0  0  0
    3.9665   -1.8200    0.1910 C   0  0  0  0  0  0  0  0  0  0  0  0
    3.7897   -1.2900    1.2842 O   0  0  0  0  0  0  0  0  0  0  0  0
    4.2512   -0.9741   -1.0061 C   0  0  0  0  0  0  0  0  0  0  0  0
    5.2884   -0.1134   -1.0157 C   0  0  0  0  0  0  0  0  0  0  0  0
    5.6336    0.6740   -2.0999 C   0  0  0  0  0  0  0  0  0  0  0  0
    4.8572    0.6167   -3.2317 C   0  0  0  0  0  0  0  0  0  0  0  0
    3.7704   -0.2460   -3.2574 C   0  0  0  0  0  0  0  0  0  0  0  0
    3.4755   -1.0304   -2.1419 C   0  0  0  0  0  0  0  0  0  0  0  0
 10  9  1  0
  1 10  1  0
  2  1  1  0
  3  2  2  0
  4  3  1  0
 11  4  1  0
 12 11  2  0
 13 11  1  0
 14 13  2  0
 15 14  1  0
 16 15  2  0
 17 16  1  0
 18 17  2  0
 18 13  1  0
  5  4  2  0
  6  5  1  0
  7  5  1  0
  7  1  2  0
  6  8  1  0
M  END
> <structure>
ox1_esm1_f8

> <pose>
3

> <is_reference>
0

> <rmsd_to_reference_A>
5.674

> <vina_score>
-6.8

> <minimizedAffinity>
-6.92715

> <minimizedRMSD>
0.23313

> <CNNscore>
0.2206434757

> <CNNaffinity>
3.3426644802

> <CNN_VS>
0.7375370860

> <CNNaffinity_variance>
0.5353487134

$$$$
ox1_esm1_f8_pose4


 18 19  0  0  0  0  0  0  0  0999 V2000
    5.8326    0.7265   -2.2605 C   0  0  0  0  0  0  0  0  0  0  0  0
    4.7223   -0.0248   -2.6465 C   0  0  0  0  0  0  0  0  0  0  0  0
    4.1265   -0.9003   -1.7505 C   0  0  0  0  0  0  0  0  0  0  0  0
    4.6104   -1.0340   -0.4604 C   0  0  0  0  0  0  0  0  0  0  0  0
    5.7371   -0.2844   -0.0638 C   0  0  0  0  0  0  0  0  0  0  0  0
    6.2274   -0.4291    1.2012 O   0  0  0  0  0  0  0  0  0  0  0  0
    6.3305    0.5870   -0.9747 C   0  0  0  0  0  0  0  0  0  0  0  0
    5.8140   -1.0204    1.7991 H   0  0  0  0  0  0  0  0  0  0  0  0
    7.7846    1.5762   -3.4400 C   0  0  0  0  0  0  0  0  0  0  0  0
    6.3782    1.5801   -3.1749 O   0  0  0  0  0  0  0  0  0  0  0  0
    3.9505   -1.9709    0.5061 C   0  0  0  0  0  0  0  0  0  0  0  0
    3.4925   -1.5273    1.5557 O   0  0  0  0  0  0  0  0  0  0  0  0
    3.8648   -3.4334    0.2191 C   0  0  0  0  0  0  0  0  0  0  0  0
    2.9911   -3.9121   -0.6878 C   0  0  0  0  0  0  0  0  0  0  0  0
    2.8815   -5.2483   -1.0317 C   0  0  0  0  0  0  0  0  0  0  0  0
    3.6789   -6.1629   -0.3885 C   0  0  0  0  0  0  0  0  0  0  0  0
    4.5834   -5.7125    0.5644 C   0  0  0  0  0  0  0  0  0  0  0  0
    4.6643   -4.3520    0.8614 C   0  0  0  0  0  0  0  0  0  0  0  0
 10  9  1  0
  1 10  1  0
  2  1  1  0
  3  2  2  0
  4  3  1  0
 11  4  1  0
 12 11  2  0
 13 11  1  0
 14 13  2  0
 15 14  1  0
 16 15  2  0
 17 16  1  0
 18 17  2  0
 18 13  1  0
  5  4  2  0
  6  5  1  0
  7  5  1  0
  7  1  2  0
  6  8  1  0
M  END
> <structure>
ox1_esm1_f8

> <pose>
4

> <is_reference>
0

> <rmsd_to_reference_A>
3.155

> <vina_score>
-6.7

> <minimizedAffinity>
-6.74480

> <minimizedRMSD>
0.11551

> <CNNscore>
0.2210871279

> <CNNaffinity>
3.4564688206

> <CNN_VS>
0.7641807795

> <CNNaffinity_variance>
0.5637498498

$$$$
ox1_esm1_f8_pose5


 18 19  0  0  0  0  0  0  0  0999 V2000
    3.1529   -4.5233    1.8848 C   0  0  0  0  0  0  0  0  0  0  0  0
    3.2137   -4.4956    0.4913 C   0  0  0  0  0  0  0  0  0  0  0  0
    3.7745   -3.4078   -0.1617 C   0  0  0  0  0  0  0  0  0  0  0  0
    4.2916   -2.3400    0.5529 C   0  0  0  0  0  0  0  0  0  0  0  0
    4.2274   -2.3556    1.9615 C   0  0  0  0  0  0  0  0  0  0  0  0
    4.7201   -1.2967    2.6661 O   0  0  0  0  0  0  0  0  0  0  0  0
    3.6562   -3.4524    2.6060 C   0  0  0  0  0  0  0  0  0  0  0  0
    5.1001   -0.5692    2.2141 H   0  0  0  0  0  0  0  0  0  0  0  0
    2.1592   -5.5738    3.8414 C   0  0  0  0  0  0  0  0  0  0  0  0
    2.6009   -5.6187    2.4816 O   0  0  0  0  0  0  0  0  0  0  0  0
    4.9089   -1.1762   -0.1609 C   0  0  0  0  0  0  0  0  0  0  0  0
    5.9078   -0.6407    0.3130 O   0  0  0  0  0  0  0  0  0  0  0  0
    4.3125   -0.6467   -1.4240 C   0  0  0  0  0  0  0  0  0  0  0  0
    3.0888   -1.0387   -1.8305 C   0  0  0  0  0  0  0  0  0  0  0  0
    2.4591   -0.5644   -2.9670 C   0  0  0  0  0  0  0  0  0  0  0  0
    3.1249    0.3348   -3.7632 C   0  0  0  0  0  0  0  0  0  0  0  0
    4.3930    0.7540   -3.3883 C   0  0  0  0  0  0  0  0  0  0  0  0
    4.9763    0.2555   -2.2231 C   0  0  0  0  0  0  0  0  0  0  0  0
 10  9  1  0
  1 10  1  0
  2  1  1  0
  3  2  2  0
  4  3  1  0
 11  4  1  0
 12 11  2  0
 13 11  1  0
 14 13  2  0
 15 14  1  0
 16 15  2  0
 17 16  1  0
 18 17  2  0
 18 13  1  0
  5  4  2  0
  6  5  1  0
  7  5  1  0
  7  1  2  0
  6  8  1  0
M  END
> <structure>
ox1_esm1_f8

> <pose>
5

> <is_reference>
0

> <rmsd_to_reference_A>
5.829

> <vina_score>
-6.7

> <minimizedAffinity>
-7.02585

> <minimizedRMSD>
0.14641

> <CNNscore>
0.6066475511

> <CNNaffinity>
3.9848489761

> <CNN_VS>
2.4173989296

> <CNNaffinity_variance>
0.3497089446

$$$$
ox1_esm1_f8_pose6


 18 19  0  0  0  0  0  0  0  0999 V2000
    2.5669   -0.1174   -2.6932 C   0  0  0  0  0  0  0  0  0  0  0  0
    2.8995   -1.4664   -2.5677 C   0  0  0  0  0  0  0  0  0  0  0  0
    3.6615   -1.9001   -1.4923 C   0  0  0  0  0  0  0  0  0  0  0  0
    4.0941   -1.0115   -0.5231 C   0  0  0  0  0  0  0  0  0  0  0  0
    3.7692    0.3556   -0.6458 C   0  0  0  0  0  0  0  0  0  0  0  0
    4.2087    1.2370    0.2983 O   0  0  0  0  0  0  0  0  0  0  0  0
    3.0073    0.7801   -1.7332 C   0  0  0  0  0  0  0  0  0  0  0  0
    4.7198    0.9321    1.0221 H   0  0  0  0  0  0  0  0  0  0  0  0
    2.1585    1.4012   -4.5494 C   0  0  0  0  0  0  0  0  0  0  0  0
    1.8075    0.2593   -3.7621 O   0  0  0  0  0  0  0  0  0  0  0  0
    4.9038   -1.4919    0.6425 C   0  0  0  0  0  0  0  0  0  0  0  0
    5.8713   -0.8337    1.0157 O   0  0  0  0  0  0  0  0  0  0  0  0
    4.5639   -2.7690    1.3372 C   0  0  0  0  0  0  0  0  0  0  0  0
    3.5344   -2.8355    2.2034 C   0  0  0  0  0  0  0  0  0  0  0  0
    3.1396   -3.9901    2.8544 C   0  0  0  0  0  0  0  0  0  0  0  0
    3.8561   -5.1437    2.6455 C   0  0  0  0  0  0  0  0  0  0  0  0
    4.9336   -5.1152    1.7713 C   0  0  0  0  0  0  0  0  0  0  0  0
    5.2796   -3.9266    1.1283 C   0  0  0  0  0  0  0  0  0  0  0  0
 10  9  1  0
  1 10  1  0
  2  1  1  0
  3  2  2  0
  4  3  1  0
 11  4  1  0
 12 11  2  0
 13 11  1  0
 14 13  2  0
 15 14  1  0
 16 15  2  0
 17 16  1  0
 18 17  2  0
 18 13  1  0
  5  4  2  0
  6  5  1  0
  7  5  1  0
  7  1  2  0
  6  8  1  0
M  END
> <structure>
ox1_esm1_f8

> <pose>
6

> <is_reference>
0

> <rmsd_to_reference_A>
0.978

> <vina_score>
-6.7

> <minimizedAffinity>
-6.50068

> <minimizedRMSD>
0.08573

> <CNNscore>
0.7721638680

> <CNNaffinity>
4.1899323463

> <CNN_VS>
3.2353143692

> <CNNaffinity_variance>
0.1022767797

$$$$
ox1_esm1_f8_pose7


 18 19  0  0  0  0  0  0  0  0999 V2000
    4.3110   -0.0932   -2.1866 C   0  0  0  0  0  0  0  0  0  0  0  0
    3.6608   -1.3030   -1.9413 C   0  0  0  0  0  0  0  0  0  0  0  0
    3.6881   -1.8638   -0.6717 C   0  0  0  0  0  0  0  0  0  0  0  0
    4.3448   -1.2315    0.3695 C   0  0  0  0  0  0  0  0  0  0  0  0
    5.0097   -0.0120    0.1288 C   0  0  0  0  0  0  0  0  0  0  0  0
    5.6734    0.6031    1.1508 O   0  0  0  0  0  0  0  0  0  0  0  0
    4.9807    0.5381   -1.1511 C   0  0  0  0  0  0  0  0  0  0  0  0
    5.6808    0.2166    2.0044 H   0  0  0  0  0  0  0  0  0  0  0  0
    3.0591    1.0592   -3.9277 C   0  0  0  0  0  0  0  0  0  0  0  0
    4.2486    0.4230   -3.4482 O   0  0  0  0  0  0  0  0  0  0  0  0
    4.3546   -1.8376    1.7406 C   0  0  0  0  0  0  0  0  0  0  0  0
    4.4810   -1.1071    2.7199 O   0  0  0  0  0  0  0  0  0  0  0  0
    4.2371   -3.3146    1.9272 C   0  0  0  0  0  0  0  0  0  0  0  0
    5.2143   -4.1453    1.5144 C   0  0  0  0  0  0  0  0  0  0  0  0
    5.1914   -5.5177    1.6857 C   0  0  0  0  0  0  0  0  0  0  0  0
    4.0922   -6.0907    2.2781 C   0  0  0  0  0  0  0  0  0  0  0  0
    3.0563   -5.2713    2.7049 C   0  0  0  0  0  0  0  0  0  0  0  0
    3.1368   -3.8907    2.5215 C   0  0  0  0  0  0  0  0  0  0  0  0
 10  9  1  0
  1 10  1  0
  2  1  1  0
  3  2  2  0
  4  3  1  0
 11  4  1  0
 12 11  2  0
 13 11  1  0
 14 13  2  0
 15 14  1  0
 16 15  2  0
 17 16  1  0
 18 17  2  0
 18 13  1  0
  5  4  2  0
  6  5  1  0
  7  5  1  0
  7  1  2  0
  6  8  1  0
M  END
> <structure>
ox1_esm1_f8

> <pose>
7

> <is_reference>
0

> <rmsd_to_reference_A>
1.527

> <vina_score>
-6.4

> <minimizedAffinity>
-6.49268

> <minimizedRMSD>
0.32366

> <CNNscore>
0.5357075930

> <CNNaffinity>
3.8320951462

> <CNN_VS>
2.0528824329

> <CNNaffinity_variance>
0.1933576912

$$$$
ox1_esm1_f8_pose8


 18 19  0  0  0  0  0  0  0  0999 V2000
    4.5614   -0.5846   -1.3057 C   0  0  0  0  0  0  0  0  0  0  0  0
    3.6032   -1.3196   -2.0035 C   0  0  0  0  0  0  0  0  0  0  0  0
    3.1334   -2.5197   -1.4895 C   0  0  0  0  0  0  0  0  0  0  0  0
    3.5956   -3.0017   -0.2777 C   0  0  0  0  0  0  0  0  0  0  0  0
    4.5706   -2.2703    0.4311 C   0  0  0  0  0  0  0  0  0  0  0  0
    5.0401   -2.7535    1.6180 O   0  0  0  0  0  0  0  0  0  0  0  0
    5.0386   -1.0686   -0.0978 C   0  0  0  0  0  0  0  0  0  0  0  0
    4.7126   -3.5635    1.9565 H   0  0  0  0  0  0  0  0  0  0  0  0
    5.0303    0.7808   -3.2644 C   0  0  0  0  0  0  0  0  0  0  0  0
    4.9853    0.5939   -1.8470 O   0  0  0  0  0  0  0  0  0  0  0  0
    3.0705   -4.2919    0.2775 C   0  0  0  0  0  0  0  0  0  0  0  0
    3.0896   -4.4774    1.4915 O   0  0  0  0  0  0  0  0  0  0  0  0
    2.5500   -5.3600   -0.6271 C   0  0  0  0  0  0  0  0  0  0  0  0
    3.3319   -5.9046   -1.5802 C   0  0  0  0  0  0  0  0  0  0  0  0
    2.9301   -6.9200   -2.4278 C   0  0  0  0  0  0  0  0  0  0  0  0
    1.6416   -7.3883   -2.3328 C   0  0  0  0  0  0  0  0  0  0  0  0
    0.7984   -6.8445   -1.3742 C   0  0  0  0  0  0  0  0  0  0  0  0
    1.2600   -5.8315   -0.5333 C   0  0  0  0  0  0  0  0  0  0  0  0
 10  9  1  0
  1 10  1  0
  2  1  1  0
  3  2  2  0
  4  3  1  0
 11  4  1  0
 12 11  2  0
 13 11  1  0
 14 13  2  0
 15 14  1  0
 16 15  2  0
 17 16  1  0
 18 17  2  0
 18 13  1  0
  5  4  2  0
  6  5  1  0
  7  5  1  0
  7  1  2  0
  6  8  1  0
M  END
> <structure>
ox1_esm1_f8

> <pose>
8

> <is_reference>
0

> <rmsd_to_reference_A>
4.213

> <vina_score>
-6.2

> <minimizedAffinity>
-6.22090

> <minimizedRMSD>
0.22675

> <CNNscore>
0.2479976863

> <CNNaffinity>
3.3911049366

> <CNN_VS>
0.8409861922

> <CNNaffinity_variance>
0.5051332116

$$$$
ox1_esm1_f8_pose9


 18 19  0  0  0  0  0  0  0  0999 V2000
    7.3310   -6.5641    1.7729 C   0  0  0  0  0  0  0  0  0  0  0  0
    6.6705   -6.6751    0.5488 C   0  0  0  0  0  0  0  0  0  0  0  0
    5.5276   -5.9279    0.3022 C   0  0  0  0  0  0  0  0  0  0  0  0
    5.0312   -5.0542    1.2545 C   0  0  0  0  0  0  0  0  0  0  0  0
    5.6888   -4.9413    2.4978 C   0  0  0  0  0  0  0  0  0  0  0  0
    5.1904   -4.0943    3.4446 O   0  0  0  0  0  0  0  0  0  0  0  0
    6.8326   -5.7020    2.7356 C   0  0  0  0  0  0  0  0  0  0  0  0
    4.4203   -3.5918    3.2648 H   0  0  0  0  0  0  0  0  0  0  0  0
    9.2504   -7.1604    3.1444 C   0  0  0  0  0  0  0  0  0  0  0  0
    8.4556   -7.3121    1.9645 O   0  0  0  0  0  0  0  0  0  0  0  0
    3.8054   -4.2398    0.9730 C   0  0  0  0  0  0  0  0  0  0  0  0
    2.7474   -4.5366    1.5207 O   0  0  0  0  0  0  0  0  0  0  0  0
    3.8501   -3.0917    0.0194 C   0  0  0  0  0  0  0  0  0  0  0  0
    3.1573   -3.1210   -1.1353 C   0  0  0  0  0  0  0  0  0  0  0  0
    3.1225   -2.0821   -2.0474 C   0  0  0  0  0  0  0  0  0  0  0  0
    3.8678   -0.9558   -1.7937 C   0  0  0  0  0  0  0  0  0  0  0  0
    4.6084   -0.8907   -0.6218 C   0  0  0  0  0  0  0  0  0  0  0  0
    4.5953   -1.9614    0.2719 C   0  0  0  0  0  0  0  0  0  0  0  0
 10  9  1  0
  1 10  1  0
  2  1  1  0
  3  2  2  0
  4  3  1  0
 11  4  1  0
 12 11  2  0
 13 11  1  0
 14 13  2  0
 15 14  1  0
 16 15  2  0
 17 16  1  0
 18 17  2  0
 18 13  1  0
  5  4  2  0
  6  5  1  0
  7  5  1  0
  7  1  2  0
  6  8  1  0
M  END
> <structure>
ox1_esm1_f8

> <pose>
9

> <is_reference>
0

> <rmsd_to_reference_A>
6.967

> <vina_score>
-6.1

> <minimizedAffinity>
-5.90338

> <minimizedRMSD>
0.13895

> <CNNscore>
0.1491351873

> <CNNaffinity>
2.9940073490

> <CNN_VS>
0.4465118349

> <CNNaffinity_variance>
0.7768376470

$$$$
