ox2_orig_f8_pose0_reference


 18 19  0  0  0  0  0  0  0  0999 V2000
    0.2446    0.1061   -0.6677 C   0  0  0  0  0  0  0  0  0  0  0  0
    0.4742    1.4190   -1.0225 C   0  0  0  0  0  0  0  0  0  0  0  0
    0.3221    1.8242   -2.3286 C   0  0  0  0  0  0  0  0  0  0  0  0
   -0.0477    0.9162   -3.2908 C   0  0  0  0  0  0  0  0  0  0  0  0
   -0.2978   -0.4086   -2.9395 C   0  0  0  0  0  0  0  0  0  0  0  0
   -0.6872   -1.2890   -3.8755 O   0  0  0  0  0  0  0  0  0  0  0  0
   -0.1456   -0.8009   -1.6288 C   0  0  0  0  0  0  0  0  0  0  0  0
   -0.7882   -1.0129   -4.7652 H   0  0  0  0  0  0  0  0  0  0  0  0
    1.2168   -1.3159    0.9841 C   0  0  0  0  0  0  0  0  0  0  0  0
    0.4180   -0.2212    0.6410 O   0  0  0  0  0  0  0  0  0  0  0  0
   -0.2051    1.3747   -4.6752 C   0  0  0  0  0  0  0  0  0  0  0  0
   -1.2023    1.2143   -5.1330 O   0  0  0  0  0  0  0  0  0  0  0  0
    0.7041    2.1441   -5.4871 C   0  0  0  0  0  0  0  0  0  0  0  0
    2.0519    1.9296   -5.4059 C   0  0  0  0  0  0  0  0  0  0  0  0
    2.9208    2.6566   -6.1889 C   0  0  0  0  0  0  0  0  0  0  0  0
    2.4433    3.6173   -7.0484 C   0  0  0  0  0  0  0  0  0  0  0  0
    1.0838    3.8227   -7.1492 C   0  0  0  0  0  0  0  0  0  0  0  0
    0.2030    3.0794   -6.3773 C   0  0  0  0  0  0  0  0  0  0  0  0
 10  9  1  0
  1 10  1  0
  2  1  1  0
  3  2  2  0
  4  3  1  0
 11  4  1  0
 12 11  2  0
 13 11  1  0
 14 13  2  0
 15 14  1  0
 16 15  2  0
 17 16  1  0
 18 17  2  0
 18 13  1  0
  5  4  2  0
  6  5  1  0
  7  5  1  0
  7  1  2  0
  6  8  1  0
M  END
> <structure>
ox2_orig_f8

> <pose>
0

> <is_reference>
1

> <rmsd_to_reference_A>
0.000

> <vina_score>


> <minimizedAffinity>
-7.08778

> <minimizedRMSD>
2.16765

> <CNNscore>
0.6476463079

> <CNNaffinity>
3.0650475025

> <CNN_VS>
1.9850666523

> <CNNaffinity_variance>
1.0573049784

$$$$
ox2_orig_f8_pose1


 18 19  0  0  0  0  0  0  0  0999 V2000
    0.2934    0.0234   -1.0829 C   0  0  0  0  0  0  0  0  0  0  0  0
    0.5159    1.3619   -1.3337 C   0  0  0  0  0  0  0  0  0  0  0  0
    0.3650    1.8670   -2.6049 C   0  0  0  0  0  0  0  0  0  0  0  0
    0.0026    1.0343   -3.6351 C   0  0  0  0  0  0  0  0  0  0  0  0
   -0.2412   -0.3157   -3.3893 C   0  0  0  0  0  0  0  0  0  0  0  0
   -0.6235   -1.1224   -4.3919 O   0  0  0  0  0  0  0  0  0  0  0  0
   -0.0902   -0.8077   -2.1122 C   0  0  0  0  0  0  0  0  0  0  0  0
   -0.7236   -0.7785   -5.2577 H   0  0  0  0  0  0  0  0  0  0  0  0
    1.0444   -1.6517    0.4417 C   0  0  0  0  0  0  0  0  0  0  0  0
    0.4651   -0.4031    0.1968 O   0  0  0  0  0  0  0  0  0  0  0  0
   -0.1539    1.5985   -4.9808 C   0  0  0  0  0  0  0  0  0  0  0  0
   -1.1631    1.5138   -5.4313 O   0  0  0  0  0  0  0  0  0  0  0  0
    0.7771    2.3858   -5.7502 C   0  0  0  0  0  0  0  0  0  0  0  0
    2.1222    2.1806   -5.6255 C   0  0  0  0  0  0  0  0  0  0  0  0
    3.0118    2.9247   -6.3680 C   0  0  0  0  0  0  0  0  0  0  0  0
    2.5568    3.8931   -7.2305 C   0  0  0  0  0  0  0  0  0  0  0  0
    1.1999    4.0886   -7.3761 C   0  0  0  0  0  0  0  0  0  0  0  0
    0.2997    3.3290   -6.6452 C   0  0  0  0  0  0  0  0  0  0  0  0
 10  9  1  0
  1 10  1  0
  2  1  1  0
  3  2  2  0
  4  3  1  0
 11  4  1  0
 12 11  2  0
 13 11  1  0
 14 13  2  0
 15 14  1  0
 16 15  2  0
 17 16  1  0
 18 17  2  0
 18 13  1  0
  5  4  2  0
  6  5  1  0
  7  5  1  0
  7  1  2  0
  6  8  1  0
M  END
> <structure>
ox2_orig_f8

> <pose>
1

> <is_reference>
0

> <rmsd_to_reference_A>
2.679

> <vina_score>
-6.9

> <minimizedAffinity>
-7.07788

> <minimizedRMSD>
0.20671

> <CNNscore>
0.6219511628

> <CNNaffinity>
2.9810886383

> <CNN_VS>
1.8540915251

> <CNNaffinity_variance>
1.0297737122

$$$$
ox2_orig_f8_pose2


 18 19  0  0  0  0  0  0  0  0999 V2000
    0.5241    0.1274   -0.8079 C   0  0  0  0  0  0  0  0  0  0  0  0
    0.8078   -0.6322   -1.9235 C   0  0  0  0  0  0  0  0  0  0  0  0
    0.5954   -0.1236   -3.1846 C   0  0  0  0  0  0  0  0  0  0  0  0
    0.0863    1.1426   -3.3372 C   0  0  0  0  0  0  0  0  0  0  0  0
   -0.1874    1.9235   -2.2162 C   0  0  0  0  0  0  0  0  0  0  0  0
   -0.6575    3.1725   -2.3676 O   0  0  0  0  0  0  0  0  0  0  0  0
    0.0321    1.4045   -0.9606 C   0  0  0  0  0  0  0  0  0  0  0  0
   -0.8038    3.5171   -3.2266 H   0  0  0  0  0  0  0  0  0  0  0  0
    1.0077   -1.8157    0.4906 C   0  0  0  0  0  0  0  0  0  0  0  0
    0.7570   -0.4431    0.4047 O   0  0  0  0  0  0  0  0  0  0  0  0
   -0.1288    1.6619   -4.6928 C   0  0  0  0  0  0  0  0  0  0  0  0
   -1.1677    1.6145   -5.0754 O   0  0  0  0  0  0  0  0  0  0  0  0
    0.7892    2.3672   -5.5512 C   0  0  0  0  0  0  0  0  0  0  0  0
    2.1363    2.1648   -5.4372 C   0  0  0  0  0  0  0  0  0  0  0  0
    3.0122    2.8310   -6.2649 C   0  0  0  0  0  0  0  0  0  0  0  0
    2.5432    3.7187   -7.2032 C   0  0  0  0  0  0  0  0  0  0  0  0
    1.1849    3.9105   -7.3362 C   0  0  0  0  0  0  0  0  0  0  0  0
    0.2968    3.2285   -6.5187 C   0  0  0  0  0  0  0  0  0  0  0  0
 10  9  1  0
  1 10  1  0
  2  1  1  0
  3  2  2  0
  4  3  1  0
 11  4  1  0
 12 11  2  0
 13 11  1  0
 14 13  2  0
 15 14  1  0
 16 15  2  0
 17 16  1  0
 18 17  2  0
 18 13  1  0
  5  4  2  0
  6  5  1  0
  7  5  1  0
  7  1  2  0
  6  8  1  0
M  END
> <structure>
ox2_orig_f8

> <pose>
2

> <is_reference>
0

> <rmsd_to_reference_A>
2.967

> <vina_score>
-6.2

> <minimizedAffinity>
-6.41709

> <minimizedRMSD>
0.22234

> <CNNscore>
0.5638831854

> <CNNaffinity>
3.2387876511

> <CNN_VS>
1.8262978792

> <CNNaffinity_variance>
0.6470680237

$$$$
ox2_orig_f8_pose3


 18 19  0  0  0  0  0  0  0  0999 V2000
    0.0697    0.5363   -1.7532 C   0  0  0  0  0  0  0  0  0  0  0  0
    0.7507    0.5067   -0.5536 C   0  0  0  0  0  0  0  0  0  0  0  0
    0.7895   -0.6462    0.1971 C   0  0  0  0  0  0  0  0  0  0  0  0
    0.1365   -1.7727   -0.2407 C   0  0  0  0  0  0  0  0  0  0  0  0
   -0.5395   -1.7582   -1.4594 C   0  0  0  0  0  0  0  0  0  0  0  0
   -1.1519   -2.8677   -1.9002 O   0  0  0  0  0  0  0  0  0  0  0  0
   -0.5682   -0.6000   -2.2022 C   0  0  0  0  0  0  0  0  0  0  0  0
   -1.1270   -3.6516   -1.3876 H   0  0  0  0  0  0  0  0  0  0  0  0
    0.0171    1.7024   -3.8347 C   0  0  0  0  0  0  0  0  0  0  0  0
    0.0728    1.7109   -2.4379 O   0  0  0  0  0  0  0  0  0  0  0  0
    0.1953   -2.9894    0.5772 C   0  0  0  0  0  0  0  0  0  0  0  0
    0.7153   -3.8582    0.1238 O   0  0  0  0  0  0  0  0  0  0  0  0
   -0.1926   -3.1797    1.9514 C   0  0  0  0  0  0  0  0  0  0  0  0
    0.6716   -2.8620    2.9633 C   0  0  0  0  0  0  0  0  0  0  0  0
    0.2979   -3.0343    4.2774 C   0  0  0  0  0  0  0  0  0  0  0  0
   -0.9419   -3.5423    4.5867 C   0  0  0  0  0  0  0  0  0  0  0  0
   -1.8233   -3.8451    3.5710 C   0  0  0  0  0  0  0  0  0  0  0  0
   -1.4598   -3.6549    2.2459 C   0  0  0  0  0  0  0  0  0  0  0  0
 10  9  1  0
  1 10  1  0
  2  1  1  0
  3  2  2  0
  4  3  1  0
 11  4  1  0
 12 11  2  0
 13 11  1  0
 14 13  2  0
 15 14  1  0
 16 15  2  0
 17 16  1  0
 18 17  2  0
 18 13  1  0
  5  4  2  0
  6  5  1  0
  7  5  1  0
  7  1  2  0
  6  8  1  0
M  END
> <structure>
ox2_orig_f8

> <pose>
3

> <is_reference>
0

> <rmsd_to_reference_A>
6.707

> <vina_score>
-5.8

> <minimizedAffinity>
-5.95720

> <minimizedRMSD>
0.14179

> <CNNscore>
0.5245598555

> <CNNaffinity>
3.1572010517

> <CNN_VS>
1.6561409235

> <CNNaffinity_variance>
0.8768854141

$$$$
ox2_orig_f8_pose4


 18 19  0  0  0  0  0  0  0  0999 V2000
   -0.2469    0.7495   -4.1936 C   0  0  0  0  0  0  0  0  0  0  0  0
   -0.7038   -0.4667   -3.7303 C   0  0  0  0  0  0  0  0  0  0  0  0
   -0.5178   -0.8241   -2.4149 C   0  0  0  0  0  0  0  0  0  0  0  0
    0.1387    0.0255   -1.5571 C   0  0  0  0  0  0  0  0  0  0  0  0
    0.5887    1.2629   -2.0128 C   0  0  0  0  0  0  0  0  0  0  0  0
    1.2045    2.1053   -1.1667 O   0  0  0  0  0  0  0  0  0  0  0  0
    0.3936    1.6115   -3.3296 C   0  0  0  0  0  0  0  0  0  0  0  0
    1.3331    1.8596   -0.2717 H   0  0  0  0  0  0  0  0  0  0  0  0
   -0.9571    2.2889   -5.8734 C   0  0  0  0  0  0  0  0  0  0  0  0
   -0.4647    1.0336   -5.5060 O   0  0  0  0  0  0  0  0  0  0  0  0
    0.3212   -0.3795   -0.1595 C   0  0  0  0  0  0  0  0  0  0  0  0
    0.2026    0.4188    0.5999 O   0  0  0  0  0  0  0  0  0  0  0  0
    0.4878   -1.7018    0.3893 C   0  0  0  0  0  0  0  0  0  0  0  0
   -0.1946   -2.7604   -0.1423 C   0  0  0  0  0  0  0  0  0  0  0  0
   -0.0285   -4.0257    0.3754 C   0  0  0  0  0  0  0  0  0  0  0  0
    0.8132   -4.2355    1.4416 C   0  0  0  0  0  0  0  0  0  0  0  0
    1.5196   -3.1748    1.9670 C   0  0  0  0  0  0  0  0  0  0  0  0
    1.3713   -1.9014    1.4373 C   0  0  0  0  0  0  0  0  0  0  0  0
 10  9  1  0
  1 10  1  0
  2  1  1  0
  3  2  2  0
  4  3  1  0
 11  4  1  0
 12 11  2  0
 13 11  1  0
 14 13  2  0
 15 14  1  0
 16 15  2  0
 17 16  1  0
 18 17  2  0
 18 13  1  0
  5  4  2  0
  6  5  1  0
  7  5  1  0
  7  1  2  0
  6  8  1  0
M  END
> <structure>
ox2_orig_f8

> <pose>
4

> <is_reference>
0

> <rmsd_to_reference_A>
6.306

> <vina_score>
-5.7

> <minimizedAffinity>
-6.41863

> <minimizedRMSD>
0.11271

> <CNNscore>
0.7627677321

> <CNNaffinity>
3.8540985584

> <CNN_VS>
2.9397819042

> <CNNaffinity_variance>
0.3809525669

$$$$
ox2_orig_f8_pose5


 18 19  0  0  0  0  0  0  0  0999 V2000
    0.2650    0.3009   -1.7917 C   0  0  0  0  0  0  0  0  0  0  0  0
   -0.3260   -0.8821   -2.1855 C   0  0  0  0  0  0  0  0  0  0  0  0
   -0.4905   -1.9116   -1.2869 C   0  0  0  0  0  0  0  0  0  0  0  0
   -0.0532   -1.7694    0.0072 C   0  0  0  0  0  0  0  0  0  0  0  0
    0.5300   -0.5726    0.4191 C   0  0  0  0  0  0  0  0  0  0  0  0
    0.9304   -0.4246    1.6923 O   0  0  0  0  0  0  0  0  0  0  0  0
    0.6854    0.4501   -0.4885 C   0  0  0  0  0  0  0  0  0  0  0  0
    0.8202   -1.1269    2.3027 H   0  0  0  0  0  0  0  0  0  0  0  0
    0.8890    0.9469   -4.0029 C   0  0  0  0  0  0  0  0  0  0  0  0
    0.3959    1.2715   -2.7353 O   0  0  0  0  0  0  0  0  0  0  0  0
   -0.2427   -2.8813    0.9453 C   0  0  0  0  0  0  0  0  0  0  0  0
   -1.0012   -2.7274    1.7389 O   0  0  0  0  0  0  0  0  0  0  0  0
    0.3076   -4.2129    0.9001 C   0  0  0  0  0  0  0  0  0  0  0  0
   -0.1695   -5.1260    0.0018 C   0  0  0  0  0  0  0  0  0  0  0  0
    0.3620   -6.3951   -0.0499 C   0  0  0  0  0  0  0  0  0  0  0  0
    1.3669   -6.7632    0.8129 C   0  0  0  0  0  0  0  0  0  0  0  0
    1.8657   -5.8386    1.7064 C   0  0  0  0  0  0  0  0  0  0  0  0
    1.3478   -4.5532    1.7490 C   0  0  0  0  0  0  0  0  0  0  0  0
 10  9  1  0
  1 10  1  0
  2  1  1  0
  3  2  2  0
  4  3  1  0
 11  4  1  0
 12 11  2  0
 13 11  1  0
 14 13  2  0
 15 14  1  0
 16 15  2  0
 17 16  1  0
 18 17  2  0
 18 13  1  0
  5  4  2  0
  6  5  1  0
  7  5  1  0
  7  1  2  0
  6  8  1  0
M  END
> <structure>
ox2_orig_f8

> <pose>
5

> <is_reference>
0

> <rmsd_to_reference_A>
6.566

> <vina_score>
-5.5

> <minimizedAffinity>
-5.71804

> <minimizedRMSD>
0.11921

> <CNNscore>
0.5997914672

> <CNNaffinity>
3.1931495667

> <CNN_VS>
1.9152238369

> <CNNaffinity_variance>
0.7180438042

$$$$
ox2_orig_f8_pose6


 18 19  0  0  0  0  0  0  0  0999 V2000
    1.8123    3.8351   -7.3775 C   0  0  0  0  0  0  0  0  0  0  0  0
    2.4041    2.9080   -6.5449 C   0  0  0  0  0  0  0  0  0  0  0  0
    1.6392    2.1572   -5.6821 C   0  0  0  0  0  0  0  0  0  0  0  0
    0.2779    2.3374   -5.6368 C   0  0  0  0  0  0  0  0  0  0  0  0
   -0.3312    3.2594   -6.4851 C   0  0  0  0  0  0  0  0  0  0  0  0
   -1.6647    3.4152   -6.4616 O   0  0  0  0  0  0  0  0  0  0  0  0
    0.4448    4.0023   -7.3461 C   0  0  0  0  0  0  0  0  0  0  0  0
   -2.1856    2.9056   -5.8725 H   0  0  0  0  0  0  0  0  0  0  0  0
    4.0032    4.2703   -8.2151 C   0  0  0  0  0  0  0  0  0  0  0  0
    2.6329    4.5416   -8.1998 O   0  0  0  0  0  0  0  0  0  0  0  0
   -0.5155    1.5229   -4.7107 C   0  0  0  0  0  0  0  0  0  0  0  0
   -1.4504    1.0887   -5.1189 O   0  0  0  0  0  0  0  0  0  0  0  0
   -0.1831    1.0758   -3.3805 C   0  0  0  0  0  0  0  0  0  0  0  0
    0.3009    1.9583   -2.4566 C   0  0  0  0  0  0  0  0  0  0  0  0
    0.6089    1.5341   -1.1833 C   0  0  0  0  0  0  0  0  0  0  0  0
    0.4475    0.2139   -0.8329 C   0  0  0  0  0  0  0  0  0  0  0  0
   -0.0603   -0.6756   -1.7546 C   0  0  0  0  0  0  0  0  0  0  0  0
   -0.3904   -0.2493   -3.0327 C   0  0  0  0  0  0  0  0  0  0  0  0
 10  9  1  0
  1 10  1  0
  2  1  1  0
  3  2  2  0
  4  3  1  0
 11  4  1  0
 12 11  2  0
 13 11  1  0
 14 13  2  0
 15 14  1  0
 16 15  2  0
 17 16  1  0
 18 17  2  0
 18 13  1  0
  5  4  2  0
  6  5  1  0
  7  5  1  0
  7  1  2  0
  6  8  1  0
M  END
> <structure>
ox2_orig_f8

> <pose>
6

> <is_reference>
0

> <rmsd_to_reference_A>
6.912

> <vina_score>
-5.5

> <minimizedAffinity>
-5.68898

> <minimizedRMSD>
0.12580

> <CNNscore>
0.3415624797

> <CNNaffinity>
2.9178943634

> <CNN_VS>
0.9966432452

> <CNNaffinity_variance>
1.0047117472

$$$$
ox2_orig_f8_pose7


 18 19  0  0  0  0  0  0  0  0999 V2000
    0.6490   -1.1599   -0.1844 C   0  0  0  0  0  0  0  0  0  0  0  0
    1.3066   -0.8527    0.9879 C   0  0  0  0  0  0  0  0  0  0  0  0
    1.0999   -1.6053    2.1214 C   0  0  0  0  0  0  0  0  0  0  0  0
    0.2240   -2.6636    2.0920 C   0  0  0  0  0  0  0  0  0  0  0  0
   -0.4330   -2.9917    0.9075 C   0  0  0  0  0  0  0  0  0  0  0  0
   -1.2668   -4.0433    0.8724 O   0  0  0  0  0  0  0  0  0  0  0  0
   -0.2149   -2.2327   -0.2193 C   0  0  0  0  0  0  0  0  0  0  0  0
   -1.4091   -4.5543    1.6448 H   0  0  0  0  0  0  0  0  0  0  0  0
    0.3922    0.9318   -1.3043 C   0  0  0  0  0  0  0  0  0  0  0  0
    0.9013   -0.3690   -1.2619 O   0  0  0  0  0  0  0  0  0  0  0  0
    0.0231   -3.4509    3.3125 C   0  0  0  0  0  0  0  0  0  0  0  0
   -1.0075   -3.4668    3.7206 O   0  0  0  0  0  0  0  0  0  0  0  0
    0.9401   -4.3384    3.9841 C   0  0  0  0  0  0  0  0  0  0  0  0
    1.3908   -5.4670    3.3575 C   0  0  0  0  0  0  0  0  0  0  0  0
    2.2753   -6.3097    3.9936 C   0  0  0  0  0  0  0  0  0  0  0  0
    2.7020   -6.0323    5.2706 C   0  0  0  0  0  0  0  0  0  0  0  0
    2.2679   -4.8843    5.8983 C   0  0  0  0  0  0  0  0  0  0  0  0
    1.3922   -4.0218    5.2543 C   0  0  0  0  0  0  0  0  0  0  0  0
 10  9  1  0
  1 10  1  0
  2  1  1  0
  3  2  2  0
  4  3  1  0
 11  4  1  0
 12 11  2  0
 13 11  1  0
 14 13  2  0
 15 14  1  0
 16 15  2  0
 17 16  1  0
 18 17  2  0
 18 13  1  0
  5  4  2  0
  6  5  1  0
  7  5  1  0
  7  1  2  0
  6  8  1  0
M  END
> <structure>
ox2_orig_f8

> <pose>
7

> <is_reference>
0

> <rmsd_to_reference_A>
8.012

> <vina_score>
-5.2

> <minimizedAffinity>
-5.26442

> <minimizedRMSD>
0.14638

> <CNNscore>
0.5299821496

> <CNNaffinity>
2.9277534485

> <CNN_VS>
1.5516570807

> <CNNaffinity_variance>
1.0436081886

$$$$
ox2_orig_f8_pose8


 18 19  0  0  0  0  0  0  0  0999 V2000
   -0.3792    0.5825   -3.6895 C   0  0  0  0  0  0  0  0  0  0  0  0
    0.9686    0.8623   -3.6026 C   0  0  0  0  0  0  0  0  0  0  0  0
    1.5723    1.6738   -4.5342 C   0  0  0  0  0  0  0  0  0  0  0  0
    0.8365    2.2004   -5.5675 C   0  0  0  0  0  0  0  0  0  0  0  0
   -0.5296    1.9373   -5.6548 C   0  0  0  0  0  0  0  0  0  0  0  0
   -1.2541    2.4755   -6.6490 O   0  0  0  0  0  0  0  0  0  0  0  0
   -1.1234    1.1261   -4.7150 C   0  0  0  0  0  0  0  0  0  0  0  0
   -0.8412    3.0267   -7.2843 H   0  0  0  0  0  0  0  0  0  0  0  0
   -0.1419   -0.5754   -1.6166 C   0  0  0  0  0  0  0  0  0  0  0  0
   -0.9063   -0.2297   -2.7347 O   0  0  0  0  0  0  0  0  0  0  0  0
    1.5042    3.0645   -6.5466 C   0  0  0  0  0  0  0  0  0  0  0  0
    0.8995    3.8985   -6.9561 O   0  0  0  0  0  0  0  0  0  0  0  0
    2.8887    3.0836   -6.9478 C   0  0  0  0  0  0  0  0  0  0  0  0
    3.7350    4.0413   -6.4618 C   0  0  0  0  0  0  0  0  0  0  0  0
    5.0604    4.0525   -6.8361 C   0  0  0  0  0  0  0  0  0  0  0  0
    5.5427    3.1119   -7.7150 C   0  0  0  0  0  0  0  0  0  0  0  0
    4.6980    2.1320   -8.1904 C   0  0  0  0  0  0  0  0  0  0  0  0
    3.3669    2.1035   -7.8019 C   0  0  0  0  0  0  0  0  0  0  0  0
 10  9  1  0
  1 10  1  0
  2  1  1  0
  3  2  2  0
  4  3  1  0
 11  4  1  0
 12 11  2  0
 13 11  1  0
 14 13  2  0
 15 14  1  0
 16 15  2  0
 17 16  1  0
 18 17  2  0
 18 13  1  0
  5  4  2  0
  6  5  1  0
  7  5  1  0
  7  1  2  0
  6  8  1  0
M  END
> <structure>
ox2_orig_f8

> <pose>
8

> <is_reference>
0

> <rmsd_to_reference_A>
5.397

> <vina_score>
-5.1

> <minimizedAffinity>
-5.42152

> <minimizedRMSD>
0.23691

> <CNNscore>
0.3425251842

> <CNNaffinity>
3.0784671307

> <CNN_VS>
1.0544525385

> <CNNaffinity_variance>
0.7369826436

$$$$
ox2_orig_f8_pose9


 18 19  0  0  0  0  0  0  0  0999 V2000
    0.0740    0.1231   -1.5394 C   0  0  0  0  0  0  0  0  0  0  0  0
   -0.4627   -1.1094   -1.8461 C   0  0  0  0  0  0  0  0  0  0  0  0
   -0.3822   -2.1477   -0.9473 C   0  0  0  0  0  0  0  0  0  0  0  0
    0.2480   -1.9645    0.2596 C   0  0  0  0  0  0  0  0  0  0  0  0
    0.7797   -0.7181    0.5852 C   0  0  0  0  0  0  0  0  0  0  0  0
    1.3699   -0.5313    1.7765 O   0  0  0  0  0  0  0  0  0  0  0  0
    0.6892    0.3136   -0.3210 C   0  0  0  0  0  0  0  0  0  0  0  0
    1.4269   -1.2395    2.3873 H   0  0  0  0  0  0  0  0  0  0  0  0
    0.7211    1.0339   -3.6481 C   0  0  0  0  0  0  0  0  0  0  0  0
   -0.0412    1.1004   -2.4786 O   0  0  0  0  0  0  0  0  0  0  0  0
    0.3194   -3.0865    1.2007 C   0  0  0  0  0  0  0  0  0  0  0  0
    1.2123   -3.7389    1.1182 O   0  0  0  0  0  0  0  0  0  0  0  0
   -0.5309   -3.3844    2.3264 C   0  0  0  0  0  0  0  0  0  0  0  0
   -1.8237   -3.7826    2.1281 C   0  0  0  0  0  0  0  0  0  0  0  0
   -2.6337   -4.0777    3.2016 C   0  0  0  0  0  0  0  0  0  0  0  0
   -2.1557   -3.9587    4.4856 C   0  0  0  0  0  0  0  0  0  0  0  0
   -0.8473   -3.5782    4.6900 C   0  0  0  0  0  0  0  0  0  0  0  0
   -0.0212   -3.2988    3.6117 C   0  0  0  0  0  0  0  0  0  0  0  0
 10  9  1  0
  1 10  1  0
  2  1  1  0
  3  2  2  0
  4  3  1  0
 11  4  1  0
 12 11  2  0
 13 11  1  0
 14 13  2  0
 15 14  1  0
 16 15  2  0
 17 16  1  0
 18 17  2  0
 18 13  1  0
  5  4  2  0
  6  5  1  0
  7  5  1  0
  7  1  2  0
  6  8  1  0
M  END
> <structure>
ox2_orig_f8

> <pose>
9

> <is_reference>
0

> <rmsd_to_reference_A>
7.171

> <vina_score>
-5.1

> <minimizedAffinity>
-5.29656

> <minimizedRMSD>
0.28725

> <CNNscore>
0.6860799193

> <CNNaffinity>
3.0924136639

> <CNN_VS>
2.1216428280

> <CNNaffinity_variance>
0.7524631619

$$$$
