ox2_esm1_f8_pose0_reference


 18 19  0  0  0  0  0  0  0  0999 V2000
   -0.5973    2.0481    4.2660 C   0  0  0  0  0  0  0  0  0  0  0  0
   -1.4786    3.0490    4.6675 C   0  0  0  0  0  0  0  0  0  0  0  0
   -2.7777    2.7324    5.0223 C   0  0  0  0  0  0  0  0  0  0  0  0
   -3.2166    1.4214    4.9667 C   0  0  0  0  0  0  0  0  0  0  0  0
   -2.3346    0.4077    4.5660 C   0  0  0  0  0  0  0  0  0  0  0  0
   -2.7759   -0.8864    4.5236 O   0  0  0  0  0  0  0  0  0  0  0  0
   -1.0246    0.7390    4.2213 C   0  0  0  0  0  0  0  0  0  0  0  0
   -3.6602   -1.0878    4.7593 H   0  0  0  0  0  0  0  0  0  0  0  0
    1.3714    3.4482    4.4895 C   0  0  0  0  0  0  0  0  0  0  0  0
    0.6952    2.3071    3.9145 O   0  0  0  0  0  0  0  0  0  0  0  0
   -4.6209    1.0649    5.3368 C   0  0  0  0  0  0  0  0  0  0  0  0
   -4.8302    0.0881    6.0242 O   0  0  0  0  0  0  0  0  0  0  0  0
   -5.7641    1.8890    4.8918 C   0  0  0  0  0  0  0  0  0  0  0  0
   -6.9392    1.8994    5.6369 C   0  0  0  0  0  0  0  0  0  0  0  0
   -8.0114    2.6833    5.2204 C   0  0  0  0  0  0  0  0  0  0  0  0
   -7.9400    3.4291    4.0519 C   0  0  0  0  0  0  0  0  0  0  0  0
   -6.7807    3.3804    3.2934 C   0  0  0  0  0  0  0  0  0  0  0  0
   -5.6922    2.6148    3.7130 C   0  0  0  0  0  0  0  0  0  0  0  0
 10  9  1  0
  1 10  1  0
  2  1  1  0
  3  2  2  0
  4  3  1  0
 11  4  1  0
 12 11  2  0
 13 11  1  0
 14 13  2  0
 15 14  1  0
 16 15  2  0
 17 16  1  0
 18 17  2  0
 18 13  1  0
  5  4  2  0
  6  5  1  0
  7  5  1  0
  7  1  2  0
  6  8  1  0
M  END
> <structure>
ox2_esm1_f8

> <pose>
0

> <is_reference>
1

> <rmsd_to_reference_A>
0.000

> <vina_score>


> <minimizedAffinity>
-4.81067

> <minimizedRMSD>
1.31996

> <CNNscore>
0.1501815021

> <CNNaffinity>
3.1471111774

> <CNN_VS>
0.4726378918

> <CNNaffinity_variance>
0.3446179926

$$$$
ox2_esm1_f8_pose1


 18 19  0  0  0  0  0  0  0  0999 V2000
   -5.4751   -6.4506   -5.2907 C   0  0  0  0  0  0  0  0  0  0  0  0
   -5.3491   -5.0847   -5.0490 C   0  0  0  0  0  0  0  0  0  0  0  0
   -6.4725   -4.3088   -4.8324 C   0  0  0  0  0  0  0  0  0  0  0  0
   -7.7335   -4.8781   -4.8707 C   0  0  0  0  0  0  0  0  0  0  0  0
   -7.8689   -6.2526   -5.1121 C   0  0  0  0  0  0  0  0  0  0  0  0
   -9.1189   -6.8085   -5.1386 O   0  0  0  0  0  0  0  0  0  0  0  0
   -6.7269   -7.0264   -5.3177 C   0  0  0  0  0  0  0  0  0  0  0  0
   -9.8736   -6.2713   -4.9981 H   0  0  0  0  0  0  0  0  0  0  0  0
   -4.4630   -8.6471   -5.0948 C   0  0  0  0  0  0  0  0  0  0  0  0
   -4.3984   -7.2608   -5.5021 O   0  0  0  0  0  0  0  0  0  0  0  0
   -8.9582   -4.0504   -4.6498 C   0  0  0  0  0  0  0  0  0  0  0  0
   -9.8076   -3.9947   -5.5131 O   0  0  0  0  0  0  0  0  0  0  0  0
   -9.1631   -3.3034   -3.3903 C   0  0  0  0  0  0  0  0  0  0  0  0
   -9.1386   -1.9125   -3.4011 C   0  0  0  0  0  0  0  0  0  0  0  0
   -9.3406   -1.2124   -2.2144 C   0  0  0  0  0  0  0  0  0  0  0  0
   -9.5306   -1.8812   -1.0139 C   0  0  0  0  0  0  0  0  0  0  0  0
   -9.5119   -3.2665   -1.0055 C   0  0  0  0  0  0  0  0  0  0  0  0
   -9.3312   -3.9790   -2.1922 C   0  0  0  0  0  0  0  0  0  0  0  0
 10  9  1  0
  1 10  1  0
  2  1  1  0
  3  2  2  0
  4  3  1  0
 11  4  1  0
 12 11  2  0
 13 11  1  0
 14 13  2  0
 15 14  1  0
 16 15  2  0
 17 16  1  0
 18 17  2  0
 18 13  1  0
  5  4  2  0
  6  5  1  0
  7  5  1  0
  7  1  2  0
  6  8  1  0
M  END
> <structure>
ox2_esm1_f8

> <pose>
1

> <is_reference>
0

> <rmsd_to_reference_A>
11.336

> <vina_score>
-4.9

> <minimizedAffinity>
-5.04106

> <minimizedRMSD>
0.15588

> <CNNscore>
0.4672389627

> <CNNaffinity>
3.1272418499

> <CNN_VS>
1.4611692429

> <CNNaffinity_variance>
0.4856649935

$$$$
ox2_esm1_f8_pose2


 18 19  0  0  0  0  0  0  0  0999 V2000
   -5.1415    1.7167    5.0578 C   0  0  0  0  0  0  0  0  0  0  0  0
   -4.4366    2.8211    4.5872 C   0  0  0  0  0  0  0  0  0  0  0  0
   -3.1273    2.6817    4.1604 C   0  0  0  0  0  0  0  0  0  0  0  0
   -2.5038    1.4476    4.2141 C   0  0  0  0  0  0  0  0  0  0  0  0
   -3.2088    0.3303    4.6845 C   0  0  0  0  0  0  0  0  0  0  0  0
   -2.5854   -0.8875    4.7236 O   0  0  0  0  0  0  0  0  0  0  0  0
   -4.5302    0.4819    5.1007 C   0  0  0  0  0  0  0  0  0  0  0  0
   -1.6963   -0.9680    4.4391 H   0  0  0  0  0  0  0  0  0  0  0  0
   -7.3068    0.6555    5.3283 C   0  0  0  0  0  0  0  0  0  0  0  0
   -6.4361    1.7991    5.4814 O   0  0  0  0  0  0  0  0  0  0  0  0
   -1.0859    1.2831    3.7663 C   0  0  0  0  0  0  0  0  0  0  0  0
   -0.8531    0.8030    2.6782 O   0  0  0  0  0  0  0  0  0  0  0  0
    0.0417    1.7067    4.6225 C   0  0  0  0  0  0  0  0  0  0  0  0
    0.5181    0.8514    5.6111 C   0  0  0  0  0  0  0  0  0  0  0  0
    1.5857    1.2495    6.4097 C   0  0  0  0  0  0  0  0  0  0  0  0
    2.1626    2.5032    6.2589 C   0  0  0  0  0  0  0  0  0  0  0  0
    1.6557    3.3651    5.2988 C   0  0  0  0  0  0  0  0  0  0  0  0
    0.5987    2.9684    4.4791 C   0  0  0  0  0  0  0  0  0  0  0  0
 10  9  1  0
  1 10  1  0
  2  1  1  0
  3  2  2  0
  4  3  1  0
 11  4  1  0
 12 11  2  0
 13 11  1  0
 14 13  2  0
 15 14  1  0
 16 15  2  0
 17 16  1  0
 18 17  2  0
 18 13  1  0
  5  4  2  0
  6  5  1  0
  7  5  1  0
  7  1  2  0
  6  8  1  0
M  END
> <structure>
ox2_esm1_f8

> <pose>
2

> <is_reference>
0

> <rmsd_to_reference_A>
6.313

> <vina_score>
-4.7

> <minimizedAffinity>
-4.84114

> <minimizedRMSD>
0.08245

> <CNNscore>
0.1401885450

> <CNNaffinity>
2.9178884029

> <CNN_VS>
0.4090545177

> <CNNaffinity_variance>
0.6863749623

$$$$
ox2_esm1_f8_pose3


 18 19  0  0  0  0  0  0  0  0999 V2000
   -8.5781    5.6391    5.0166 C   0  0  0  0  0  0  0  0  0  0  0  0
   -7.5607    5.3763    5.9301 C   0  0  0  0  0  0  0  0  0  0  0  0
   -6.4929    4.5728    5.5723 C   0  0  0  0  0  0  0  0  0  0  0  0
   -6.4361    4.0109    4.3089 C   0  0  0  0  0  0  0  0  0  0  0  0
   -7.4549    4.2723    3.3832 C   0  0  0  0  0  0  0  0  0  0  0  0
   -7.3839    3.7191    2.1339 O   0  0  0  0  0  0  0  0  0  0  0  0
   -8.5198    5.0932    3.7532 C   0  0  0  0  0  0  0  0  0  0  0  0
   -6.6598    3.1702    1.9051 H   0  0  0  0  0  0  0  0  0  0  0  0
  -10.1023    7.4067    4.3510 C   0  0  0  0  0  0  0  0  0  0  0  0
   -9.6473    6.4317    5.3175 O   0  0  0  0  0  0  0  0  0  0  0  0
   -5.2940    3.1313    3.9113 C   0  0  0  0  0  0  0  0  0  0  0  0
   -4.4132    3.5742    3.2054 O   0  0  0  0  0  0  0  0  0  0  0  0
   -5.2084    1.7291    4.3724 C   0  0  0  0  0  0  0  0  0  0  0  0
   -3.9890    1.2190    4.8079 C   0  0  0  0  0  0  0  0  0  0  0  0
   -3.9131   -0.0985    5.2505 C   0  0  0  0  0  0  0  0  0  0  0  0
   -5.0286   -0.9244    5.2322 C   0  0  0  0  0  0  0  0  0  0  0  0
   -6.2298   -0.4204    4.7580 C   0  0  0  0  0  0  0  0  0  0  0  0
   -6.3226    0.9052    4.3322 C   0  0  0  0  0  0  0  0  0  0  0  0
 10  9  1  0
  1 10  1  0
  2  1  1  0
  3  2  2  0
  4  3  1  0
 11  4  1  0
 12 11  2  0
 13 11  1  0
 14 13  2  0
 15 14  1  0
 16 15  2  0
 17 16  1  0
 18 17  2  0
 18 13  1  0
  5  4  2  0
  6  5  1  0
  7  5  1  0
  7  1  2  0
  6  8  1  0
M  END
> <structure>
ox2_esm1_f8

> <pose>
3

> <is_reference>
0

> <rmsd_to_reference_A>
6.370

> <vina_score>
-4.6

> <minimizedAffinity>
-4.74962

> <minimizedRMSD>
0.19941

> <CNNscore>
0.7335442901

> <CNNaffinity>
3.3289382458

> <CNN_VS>
2.4419236183

> <CNNaffinity_variance>
0.3159745634

$$$$
ox2_esm1_f8_pose4


 18 19  0  0  0  0  0  0  0  0999 V2000
  -11.4898    3.0729   -4.9453 C   0  0  0  0  0  0  0  0  0  0  0  0
  -12.1489    2.5763   -3.8234 C   0  0  0  0  0  0  0  0  0  0  0  0
  -11.4541    1.8525   -2.8707 C   0  0  0  0  0  0  0  0  0  0  0  0
  -10.1032    1.6018   -3.0332 C   0  0  0  0  0  0  0  0  0  0  0  0
   -9.4319    2.0996   -4.1587 C   0  0  0  0  0  0  0  0  0  0  0  0
   -8.0946    1.8537   -4.3041 O   0  0  0  0  0  0  0  0  0  0  0  0
  -10.1415    2.8374   -5.1061 C   0  0  0  0  0  0  0  0  0  0  0  0
   -7.6367    1.3557   -3.6558 H   0  0  0  0  0  0  0  0  0  0  0  0
  -11.5583    5.0555   -6.3406 C   0  0  0  0  0  0  0  0  0  0  0  0
  -12.1271    3.7990   -5.9080 O   0  0  0  0  0  0  0  0  0  0  0  0
   -9.3410    0.8112   -2.0174 C   0  0  0  0  0  0  0  0  0  0  0  0
   -8.7504    1.3874   -1.1293 O   0  0  0  0  0  0  0  0  0  0  0  0
   -9.3045   -0.6661   -2.0656 C   0  0  0  0  0  0  0  0  0  0  0  0
   -8.9596   -1.3095   -3.2497 C   0  0  0  0  0  0  0  0  0  0  0  0
   -8.9170   -2.7004   -3.2900 C   0  0  0  0  0  0  0  0  0  0  0  0
   -9.2468   -3.4575   -2.1752 C   0  0  0  0  0  0  0  0  0  0  0  0
   -9.6288   -2.8089   -1.0114 C   0  0  0  0  0  0  0  0  0  0  0  0
   -9.6546   -1.4150   -0.9530 C   0  0  0  0  0  0  0  0  0  0  0  0
 10  9  1  0
  1 10  1  0
  2  1  1  0
  3  2  2  0
  4  3  1  0
 11  4  1  0
 12 11  2  0
 13 11  1  0
 14 13  2  0
 15 14  1  0
 16 15  2  0
 17 16  1  0
 18 17  2  0
 18 13  1  0
  5  4  2  0
  6  5  1  0
  7  5  1  0
  7  1  2  0
  6  8  1  0
M  END
> <structure>
ox2_esm1_f8

> <pose>
4

> <is_reference>
0

> <rmsd_to_reference_A>
10.845

> <vina_score>
-4.5

> <minimizedAffinity>
-4.98467

> <minimizedRMSD>
0.40241

> <CNNscore>
0.2840988636

> <CNNaffinity>
2.9185369015

> <CNN_VS>
0.8291530013

> <CNNaffinity_variance>
0.5622018576

$$$$
ox2_esm1_f8_pose5


 18 19  0  0  0  0  0  0  0  0999 V2000
   -8.2856    5.8289    4.8171 C   0  0  0  0  0  0  0  0  0  0  0  0
   -7.6525    5.1914    5.8821 C   0  0  0  0  0  0  0  0  0  0  0  0
   -6.9473    4.0202    5.6732 C   0  0  0  0  0  0  0  0  0  0  0  0
   -6.8784    3.4623    4.4089 C   0  0  0  0  0  0  0  0  0  0  0  0
   -7.5109    4.0988    3.3309 C   0  0  0  0  0  0  0  0  0  0  0  0
   -7.4278    3.5439    2.0833 O   0  0  0  0  0  0  0  0  0  0  0  0
   -8.2088    5.2850    3.5533 C   0  0  0  0  0  0  0  0  0  0  0  0
   -6.9535    2.7459    1.9561 H   0  0  0  0  0  0  0  0  0  0  0  0
   -9.1968    7.8443    3.8218 C   0  0  0  0  0  0  0  0  0  0  0  0
   -8.9859    6.9895    4.9682 O   0  0  0  0  0  0  0  0  0  0  0  0
   -6.1298    2.1906    4.1704 C   0  0  0  0  0  0  0  0  0  0  0  0
   -6.7361    1.1864    3.8626 O   0  0  0  0  0  0  0  0  0  0  0  0
   -4.6576    2.1338    4.2880 C   0  0  0  0  0  0  0  0  0  0  0  0
   -3.8851    3.1912    3.8180 C   0  0  0  0  0  0  0  0  0  0  0  0
   -2.4994    3.1390    3.9383 C   0  0  0  0  0  0  0  0  0  0  0  0
   -1.8714    2.0308    4.4896 C   0  0  0  0  0  0  0  0  0  0  0  0
   -2.6458    0.9633    4.9166 C   0  0  0  0  0  0  0  0  0  0  0  0
   -4.0361    1.0140    4.8205 C   0  0  0  0  0  0  0  0  0  0  0  0
 10  9  1  0
  1 10  1  0
  2  1  1  0
  3  2  2  0
  4  3  1  0
 11  4  1  0
 12 11  2  0
 13 11  1  0
 14 13  2  0
 15 14  1  0
 16 15  2  0
 17 16  1  0
 18 17  2  0
 18 13  1  0
  5  4  2  0
  6  5  1  0
  7  5  1  0
  7  1  2  0
  6  8  1  0
M  END
> <structure>
ox2_esm1_f8

> <pose>
5

> <is_reference>
0

> <rmsd_to_reference_A>
6.269

> <vina_score>
-4.5

> <minimizedAffinity>
-4.66969

> <minimizedRMSD>
0.17354

> <CNNscore>
0.6263062954

> <CNNaffinity>
3.1738586426

> <CNN_VS>
1.9878076315

> <CNNaffinity_variance>
0.5230296254

$$$$
ox2_esm1_f8_pose6


 18 19  0  0  0  0  0  0  0  0999 V2000
    2.1424    2.1417    6.2709 C   0  0  0  0  0  0  0  0  0  0  0  0
    1.6982    3.1340    5.3998 C   0  0  0  0  0  0  0  0  0  0  0  0
    0.6006    2.9081    4.5895 C   0  0  0  0  0  0  0  0  0  0  0  0
   -0.0558    1.6899    4.6251 C   0  0  0  0  0  0  0  0  0  0  0  0
    0.3842    0.6876    5.5012 C   0  0  0  0  0  0  0  0  0  0  0  0
   -0.2768   -0.5094    5.5359 O   0  0  0  0  0  0  0  0  0  0  0  0
    1.4851    0.9325    6.3206 C   0  0  0  0  0  0  0  0  0  0  0  0
   -1.0146   -0.6536    4.9766 H   0  0  0  0  0  0  0  0  0  0  0  0
    4.4810    1.7123    6.7530 C   0  0  0  0  0  0  0  0  0  0  0  0
    3.2143    2.3179    7.0969 O   0  0  0  0  0  0  0  0  0  0  0  0
   -1.2376    1.4275    3.7471 C   0  0  0  0  0  0  0  0  0  0  0  0
   -1.1074    0.7367    2.7589 O   0  0  0  0  0  0  0  0  0  0  0  0
   -2.5683    1.9834    4.0658 C   0  0  0  0  0  0  0  0  0  0  0  0
   -3.4660    1.2357    4.8216 C   0  0  0  0  0  0  0  0  0  0  0  0
   -4.7169    1.7653    5.1281 C   0  0  0  0  0  0  0  0  0  0  0  0
   -5.0972    3.0164    4.6611 C   0  0  0  0  0  0  0  0  0  0  0  0
   -4.2118    3.7369    3.8745 C   0  0  0  0  0  0  0  0  0  0  0  0
   -2.9488    3.2244    3.5788 C   0  0  0  0  0  0  0  0  0  0  0  0
 10  9  1  0
  1 10  1  0
  2  1  1  0
  3  2  2  0
  4  3  1  0
 11  4  1  0
 12 11  2  0
 13 11  1  0
 14 13  2  0
 15 14  1  0
 16 15  2  0
 17 16  1  0
 18 17  2  0
 18 13  1  0
  5  4  2  0
  6  5  1  0
  7  5  1  0
  7  1  2  0
  6  8  1  0
M  END
> <structure>
ox2_esm1_f8

> <pose>
6

> <is_reference>
0

> <rmsd_to_reference_A>
4.323

> <vina_score>
-4.5

> <minimizedAffinity>
-4.67404

> <minimizedRMSD>
0.08790

> <CNNscore>
0.1512603611

> <CNNaffinity>
2.8614165783

> <CNN_VS>
0.4328189194

> <CNNaffinity_variance>
0.7306087613

$$$$
ox2_esm1_f8_pose7


 18 19  0  0  0  0  0  0  0  0999 V2000
  -10.4790    3.1873   -5.2602 C   0  0  0  0  0  0  0  0  0  0  0  0
   -9.3517    2.3775   -5.3850 C   0  0  0  0  0  0  0  0  0  0  0  0
   -8.9531    1.5732   -4.3329 C   0  0  0  0  0  0  0  0  0  0  0  0
   -9.6602    1.5770   -3.1439 C   0  0  0  0  0  0  0  0  0  0  0  0
  -10.7978    2.3866   -3.0115 C   0  0  0  0  0  0  0  0  0  0  0  0
  -11.4951    2.3756   -1.8352 O   0  0  0  0  0  0  0  0  0  0  0  0
  -11.1954    3.1850   -4.0837 C   0  0  0  0  0  0  0  0  0  0  0  0
  -11.2108    1.8318   -1.1271 H   0  0  0  0  0  0  0  0  0  0  0  0
  -11.6098    5.2202   -5.9491 C   0  0  0  0  0  0  0  0  0  0  0  0
  -10.9186    3.9918   -6.2712 O   0  0  0  0  0  0  0  0  0  0  0  0
   -9.2354    0.7206   -1.9937 C   0  0  0  0  0  0  0  0  0  0  0  0
   -8.8884    1.2414   -0.9549 O   0  0  0  0  0  0  0  0  0  0  0  0
   -9.2420   -0.7543   -2.0916 C   0  0  0  0  0  0  0  0  0  0  0  0
   -9.5960   -1.5183   -0.9846 C   0  0  0  0  0  0  0  0  0  0  0  0
   -9.6094   -2.9064   -1.0822 C   0  0  0  0  0  0  0  0  0  0  0  0
   -9.2405   -3.5440   -2.2592 C   0  0  0  0  0  0  0  0  0  0  0  0
   -8.8477   -2.7763   -3.3451 C   0  0  0  0  0  0  0  0  0  0  0  0
   -8.8519   -1.3832   -3.2643 C   0  0  0  0  0  0  0  0  0  0  0  0
 10  9  1  0
  1 10  1  0
  2  1  1  0
  3  2  2  0
  4  3  1  0
 11  4  1  0
 12 11  2  0
 13 11  1  0
 14 13  2  0
 15 14  1  0
 16 15  2  0
 17 16  1  0
 18 17  2  0
 18 13  1  0
  5  4  2  0
  6  5  1  0
  7  5  1  0
  7  1  2  0
  6  8  1  0
M  END
> <structure>
ox2_esm1_f8

> <pose>
7

> <is_reference>
0

> <rmsd_to_reference_A>
10.680

> <vina_score>
-4.5

> <minimizedAffinity>
-5.13051

> <minimizedRMSD>
0.27537

> <CNNscore>
0.4464324713

> <CNNaffinity>
3.0491340160

> <CNN_VS>
1.3612323999

> <CNNaffinity_variance>
0.5857303143

$$$$
ox2_esm1_f8_pose8


 18 19  0  0  0  0  0  0  0  0999 V2000
   -7.6162    1.3875    5.3541 C   0  0  0  0  0  0  0  0  0  0  0  0
   -6.6916    2.1553    4.6486 C   0  0  0  0  0  0  0  0  0  0  0  0
   -5.4061    1.6861    4.4476 C   0  0  0  0  0  0  0  0  0  0  0  0
   -5.0234    0.4583    4.9581 C   0  0  0  0  0  0  0  0  0  0  0  0
   -5.9479   -0.3205    5.6675 C   0  0  0  0  0  0  0  0  0  0  0  0
   -5.5622   -1.5373    6.1600 O   0  0  0  0  0  0  0  0  0  0  0  0
   -7.2444    0.1586    5.8545 C   0  0  0  0  0  0  0  0  0  0  0  0
   -4.6865   -1.8416    6.0239 H   0  0  0  0  0  0  0  0  0  0  0  0
   -9.1978    3.2158    5.5601 C   0  0  0  0  0  0  0  0  0  0  0  0
   -8.8970    1.8018    5.5731 O   0  0  0  0  0  0  0  0  0  0  0  0
   -3.6334   -0.0578    4.7585 C   0  0  0  0  0  0  0  0  0  0  0  0
   -3.4642   -1.2182    4.4487 O   0  0  0  0  0  0  0  0  0  0  0  0
   -2.4581    0.8235    4.9179 C   0  0  0  0  0  0  0  0  0  0  0  0
   -2.1691    1.3700    6.1636 C   0  0  0  0  0  0  0  0  0  0  0  0
   -1.0559    2.1928    6.3128 C   0  0  0  0  0  0  0  0  0  0  0  0
   -0.2475    2.5062    5.2286 C   0  0  0  0  0  0  0  0  0  0  0  0
   -0.5669    1.9905    3.9823 C   0  0  0  0  0  0  0  0  0  0  0  0
   -1.6686    1.1480    3.8251 C   0  0  0  0  0  0  0  0  0  0  0  0
 10  9  1  0
  1 10  1  0
  2  1  1  0
  3  2  2  0
  4  3  1  0
 11  4  1  0
 12 11  2  0
 13 11  1  0
 14 13  2  0
 15 14  1  0
 16 15  2  0
 17 16  1  0
 18 17  2  0
 18 13  1  0
  5  4  2  0
  6  5  1  0
  7  5  1  0
  7  1  2  0
  6  8  1  0
M  END
> <structure>
ox2_esm1_f8

> <pose>
8

> <is_reference>
0

> <rmsd_to_reference_A>
5.674

> <vina_score>
-4.4

> <minimizedAffinity>
-4.61804

> <minimizedRMSD>
0.13407

> <CNNscore>
0.1381980032

> <CNNaffinity>
3.2202131748

> <CNN_VS>
0.4450270236

> <CNNaffinity_variance>
0.2809860408

$$$$
ox2_esm1_f8_pose9


 18 19  0  0  0  0  0  0  0  0999 V2000
   -9.1717    0.8902   -4.8138 C   0  0  0  0  0  0  0  0  0  0  0  0
   -9.1662    0.2795   -6.0659 C   0  0  0  0  0  0  0  0  0  0  0  0
   -9.1110   -1.0993   -6.1681 C   0  0  0  0  0  0  0  0  0  0  0  0
   -9.0458   -1.8813   -5.0290 C   0  0  0  0  0  0  0  0  0  0  0  0
   -9.0526   -1.2742   -3.7651 C   0  0  0  0  0  0  0  0  0  0  0  0
   -8.9974   -2.0577   -2.6449 O   0  0  0  0  0  0  0  0  0  0  0  0
   -9.1195    0.1155   -3.6760 C   0  0  0  0  0  0  0  0  0  0  0  0
   -8.9528   -2.9900   -2.7269 H   0  0  0  0  0  0  0  0  0  0  0  0
  -10.5195    2.8795   -4.4788 C   0  0  0  0  0  0  0  0  0  0  0  0
   -9.2331    2.2442   -4.6599 O   0  0  0  0  0  0  0  0  0  0  0  0
   -8.9751   -3.3722   -5.1236 C   0  0  0  0  0  0  0  0  0  0  0  0
   -9.9579   -4.0365   -4.8726 O   0  0  0  0  0  0  0  0  0  0  0  0
   -7.7300   -4.0562   -5.5313 C   0  0  0  0  0  0  0  0  0  0  0  0
   -7.6136   -4.5671   -6.8206 C   0  0  0  0  0  0  0  0  0  0  0  0
   -6.4362   -5.2033   -7.2048 C   0  0  0  0  0  0  0  0  0  0  0  0
   -5.3884   -5.3681   -6.3106 C   0  0  0  0  0  0  0  0  0  0  0  0
   -5.5289   -4.8943   -5.0158 C   0  0  0  0  0  0  0  0  0  0  0  0
   -6.6964   -4.2361   -4.6256 C   0  0  0  0  0  0  0  0  0  0  0  0
 10  9  1  0
  1 10  1  0
  2  1  1  0
  3  2  2  0
  4  3  1  0
 11  4  1  0
 12 11  2  0
 13 11  1  0
 14 13  2  0
 15 14  1  0
 16 15  2  0
 17 16  1  0
 18 17  2  0
 18 13  1  0
  5  4  2  0
  6  5  1  0
  7  5  1  0
  7  1  2  0
  6  8  1  0
M  END
> <structure>
ox2_esm1_f8

> <pose>
9

> <is_reference>
0

> <rmsd_to_reference_A>
12.276

> <vina_score>
-4.4

> <minimizedAffinity>
-5.02560

> <minimizedRMSD>
0.55893

> <CNNscore>
0.1969253570

> <CNNaffinity>
2.6193704605

> <CNN_VS>
0.5158204436

> <CNNaffinity_variance>
0.9864688516

$$$$
