ox2_shuffle_esm0_pose0_reference


 18 19  0  0  0  0  0  0  0  0999 V2000
   -2.8397   -3.5496   -0.0070 C   0  0  0  0  0  0  0  0  0  0  0  0
   -2.2032   -3.2865    1.1998 C   0  0  0  0  0  0  0  0  0  0  0  0
   -0.8447   -3.4516    1.3036 C   0  0  0  0  0  0  0  0  0  0  0  0
   -0.0985   -3.8693    0.2257 C   0  0  0  0  0  0  0  0  0  0  0  0
   -0.7387   -4.1516   -0.9733 C   0  0  0  0  0  0  0  0  0  0  0  0
    0.0052   -4.5899   -2.0243 O   0  0  0  0  0  0  0  0  0  0  0  0
   -2.1053   -3.9800   -1.0839 C   0  0  0  0  0  0  0  0  0  0  0  0
    0.9309   -4.7000   -1.9296 H   0  0  0  0  0  0  0  0  0  0  0  0
   -4.9493   -2.6621    0.7890 C   0  0  0  0  0  0  0  0  0  0  0  0
   -4.1717   -3.3832   -0.1711 O   0  0  0  0  0  0  0  0  0  0  0  0
    1.3775   -4.0443    0.2848 C   0  0  0  0  0  0  0  0  0  0  0  0
    1.8199   -5.1044   -0.0783 O   0  0  0  0  0  0  0  0  0  0  0  0
    2.3439   -3.0035    0.6885 C   0  0  0  0  0  0  0  0  0  0  0  0
    3.7027   -3.2271    0.4696 C   0  0  0  0  0  0  0  0  0  0  0  0
    4.6357   -2.2741    0.8094 C   0  0  0  0  0  0  0  0  0  0  0  0
    4.2418   -1.0801    1.3786 C   0  0  0  0  0  0  0  0  0  0  0  0
    2.8971   -0.8452    1.5883 C   0  0  0  0  0  0  0  0  0  0  0  0
    1.9629   -1.8020    1.2340 C   0  0  0  0  0  0  0  0  0  0  0  0
 10  9  1  0
  1 10  1  0
  2  1  1  0
  3  2  2  0
  4  3  1  0
 11  4  1  0
 12 11  2  0
 13 11  1  0
 14 13  2  0
 15 14  1  0
 16 15  2  0
 17 16  1  0
 18 17  2  0
 18 13  1  0
  5  4  2  0
  6  5  1  0
  7  5  1  0
  7  1  2  0
  6  8  1  0
M  END
> <structure>
ox2_shuffle_esm0

> <pose>
0

> <is_reference>
1

> <rmsd_to_reference_A>
0.000

> <vina_score>


> <minimizedAffinity>
-4.82820

> <minimizedRMSD>
1.23770

> <CNNscore>
0.8170341253

> <CNNaffinity>
5.2023320198

> <CNN_VS>
4.2504825592

> <CNNaffinity_variance>
0.5197703838

$$$$
ox2_shuffle_esm0_pose1


 18 19  0  0  0  0  0  0  0  0999 V2000
    0.8003   -7.1962    0.7040 C   0  0  0  0  0  0  0  0  0  0  0  0
   -0.3587   -7.1654    1.4705 C   0  0  0  0  0  0  0  0  0  0  0  0
   -1.3503   -6.2656    1.1688 C   0  0  0  0  0  0  0  0  0  0  0  0
   -1.2176   -5.3941    0.1131 C   0  0  0  0  0  0  0  0  0  0  0  0
   -0.0501   -5.4124   -0.6383 C   0  0  0  0  0  0  0  0  0  0  0  0
    0.0822   -4.5275   -1.6628 O   0  0  0  0  0  0  0  0  0  0  0  0
    0.9472   -6.3212   -0.3429 C   0  0  0  0  0  0  0  0  0  0  0  0
   -0.6055   -3.9185   -1.8477 H   0  0  0  0  0  0  0  0  0  0  0  0
    2.5654   -8.0127    2.1498 C   0  0  0  0  0  0  0  0  0  0  0  0
    1.7984   -8.0769    0.9430 O   0  0  0  0  0  0  0  0  0  0  0  0
   -2.2726   -4.4143   -0.2631 C   0  0  0  0  0  0  0  0  0  0  0  0
   -2.8104   -4.5696   -1.3296 O   0  0  0  0  0  0  0  0  0  0  0  0
   -2.7550   -3.3116    0.5911 C   0  0  0  0  0  0  0  0  0  0  0  0
   -4.1166   -3.0107    0.5944 C   0  0  0  0  0  0  0  0  0  0  0  0
   -4.6133   -2.0066    1.3942 C   0  0  0  0  0  0  0  0  0  0  0  0
   -3.7685   -1.2741    2.2031 C   0  0  0  0  0  0  0  0  0  0  0  0
   -2.4206   -1.5726    2.2153 C   0  0  0  0  0  0  0  0  0  0  0  0
   -1.9286   -2.5907    1.4182 C   0  0  0  0  0  0  0  0  0  0  0  0
 10  9  1  0
  1 10  1  0
  2  1  1  0
  3  2  2  0
  4  3  1  0
 11  4  1  0
 12 11  2  0
 13 11  1  0
 14 13  2  0
 15 14  1  0
 16 15  2  0
 17 16  1  0
 18 17  2  0
 18 13  1  0
  5  4  2  0
  6  5  1  0
  7  5  1  0
  7  1  2  0
  6  8  1  0
M  END
> <structure>
ox2_shuffle_esm0

> <pose>
1

> <is_reference>
0

> <rmsd_to_reference_A>
5.343

> <vina_score>
-5.3

> <minimizedAffinity>
-5.46891

> <minimizedRMSD>
0.15734

> <CNNscore>
0.3317195773

> <CNNaffinity>
3.6829345226

> <CNN_VS>
1.2217015028

> <CNNaffinity_variance>
0.4359992445

$$$$
ox2_shuffle_esm0_pose2


 18 19  0  0  0  0  0  0  0  0999 V2000
    0.3771   -5.8963   -0.4624 C   0  0  0  0  0  0  0  0  0  0  0  0
    0.1946   -4.6773   -1.1028 C   0  0  0  0  0  0  0  0  0  0  0  0
   -1.0368   -4.0702   -1.0737 C   0  0  0  0  0  0  0  0  0  0  0  0
   -2.0952   -4.6497   -0.4136 C   0  0  0  0  0  0  0  0  0  0  0  0
   -1.9163   -5.8781    0.2074 C   0  0  0  0  0  0  0  0  0  0  0  0
   -2.9778   -6.4545    0.8345 O   0  0  0  0  0  0  0  0  0  0  0  0
   -0.6771   -6.4885    0.1875 C   0  0  0  0  0  0  0  0  0  0  0  0
   -3.8104   -6.0247    0.8370 H   0  0  0  0  0  0  0  0  0  0  0  0
    2.6144   -6.1041    0.4441 C   0  0  0  0  0  0  0  0  0  0  0  0
    1.5730   -6.5276   -0.4400 O   0  0  0  0  0  0  0  0  0  0  0  0
   -3.4416   -4.0217   -0.3398 C   0  0  0  0  0  0  0  0  0  0  0  0
   -4.2852   -4.4399   -1.0915 O   0  0  0  0  0  0  0  0  0  0  0  0
   -3.8434   -2.9767    0.6229 C   0  0  0  0  0  0  0  0  0  0  0  0
   -2.8614   -2.3688    1.4023 C   0  0  0  0  0  0  0  0  0  0  0  0
   -3.1879   -1.3736    2.2957 C   0  0  0  0  0  0  0  0  0  0  0  0
   -4.4985   -0.9648    2.4388 C   0  0  0  0  0  0  0  0  0  0  0  0
   -5.4768   -1.5536    1.6616 C   0  0  0  0  0  0  0  0  0  0  0  0
   -5.1405   -2.5445    0.7571 C   0  0  0  0  0  0  0  0  0  0  0  0
 10  9  1  0
  1 10  1  0
  2  1  1  0
  3  2  2  0
  4  3  1  0
 11  4  1  0
 12 11  2  0
 13 11  1  0
 14 13  2  0
 15 14  1  0
 16 15  2  0
 17 16  1  0
 18 17  2  0
 18 13  1  0
  5  4  2  0
  6  5  1  0
  7  5  1  0
  7  1  2  0
  6  8  1  0
M  END
> <structure>
ox2_shuffle_esm0

> <pose>
2

> <is_reference>
0

> <rmsd_to_reference_A>
5.499

> <vina_score>
-5.2

> <minimizedAffinity>
-5.38812

> <minimizedRMSD>
0.06939

> <CNNscore>
0.6038394570

> <CNNaffinity>
3.3188674450

> <CNN_VS>
2.0040631294

> <CNNaffinity_variance>
0.4330856800

$$$$
ox2_shuffle_esm0_pose3


 18 19  0  0  0  0  0  0  0  0999 V2000
    1.3797   -7.3666    0.9319 C   0  0  0  0  0  0  0  0  0  0  0  0
    0.0051   -7.5001    0.7792 C   0  0  0  0  0  0  0  0  0  0  0  0
   -0.7404   -6.4279    0.3570 C   0  0  0  0  0  0  0  0  0  0  0  0
   -0.1452   -5.2197    0.0760 C   0  0  0  0  0  0  0  0  0  0  0  0
    1.2250   -5.0818    0.2488 C   0  0  0  0  0  0  0  0  0  0  0  0
    1.7988   -3.8755   -0.0056 O   0  0  0  0  0  0  0  0  0  0  0  0
    1.9806   -6.1609    0.6669 C   0  0  0  0  0  0  0  0  0  0  0  0
    1.2700   -3.1555   -0.2883 H   0  0  0  0  0  0  0  0  0  0  0  0
    2.9772   -8.2994    2.4976 C   0  0  0  0  0  0  0  0  0  0  0  0
    2.1648   -8.3958    1.3242 O   0  0  0  0  0  0  0  0  0  0  0  0
   -0.9086   -4.0354   -0.4017 C   0  0  0  0  0  0  0  0  0  0  0  0
   -0.6990   -3.6641   -1.5288 O   0  0  0  0  0  0  0  0  0  0  0  0
   -1.9464   -3.3217    0.3695 C   0  0  0  0  0  0  0  0  0  0  0  0
   -1.5515   -2.4735    1.4023 C   0  0  0  0  0  0  0  0  0  0  0  0
   -2.4846   -1.7715    2.1319 C   0  0  0  0  0  0  0  0  0  0  0  0
   -3.8304   -1.9002    1.8550 C   0  0  0  0  0  0  0  0  0  0  0  0
   -4.2302   -2.7294    0.8255 C   0  0  0  0  0  0  0  0  0  0  0  0
   -3.2872   -3.4233    0.0881 C   0  0  0  0  0  0  0  0  0  0  0  0
 10  9  1  0
  1 10  1  0
  2  1  1  0
  3  2  2  0
  4  3  1  0
 11  4  1  0
 12 11  2  0
 13 11  1  0
 14 13  2  0
 15 14  1  0
 16 15  2  0
 17 16  1  0
 18 17  2  0
 18 13  1  0
  5  4  2  0
  6  5  1  0
  7  5  1  0
  7  1  2  0
  6  8  1  0
M  END
> <structure>
ox2_shuffle_esm0

> <pose>
3

> <is_reference>
0

> <rmsd_to_reference_A>
5.493

> <vina_score>
-5.1

> <minimizedAffinity>
-5.23741

> <minimizedRMSD>
0.10574

> <CNNscore>
0.3143926263

> <CNNaffinity>
3.4791736603

> <CNN_VS>
1.0938265324

> <CNNaffinity_variance>
0.3617077172

$$$$
ox2_shuffle_esm0_pose4


 18 19  0  0  0  0  0  0  0  0999 V2000
    2.5635   -2.5877    1.6467 C   0  0  0  0  0  0  0  0  0  0  0  0
    1.3967   -1.9375    1.2649 C   0  0  0  0  0  0  0  0  0  0  0  0
    0.5077   -2.5675    0.4303 C   0  0  0  0  0  0  0  0  0  0  0  0
    0.7519   -3.8391   -0.0329 C   0  0  0  0  0  0  0  0  0  0  0  0
    1.9281   -4.4797    0.3330 C   0  0  0  0  0  0  0  0  0  0  0  0
    2.1720   -5.7275   -0.1525 O   0  0  0  0  0  0  0  0  0  0  0  0
    2.8219   -3.8516    1.1796 C   0  0  0  0  0  0  0  0  0  0  0  0
    1.5536   -6.1365   -0.7254 H   0  0  0  0  0  0  0  0  0  0  0  0
    3.7863   -0.6330    2.3917 C   0  0  0  0  0  0  0  0  0  0  0  0
    3.4622   -2.0228    2.4841 O   0  0  0  0  0  0  0  0  0  0  0  0
   -0.1893   -4.5687   -0.9243 C   0  0  0  0  0  0  0  0  0  0  0  0
    0.0812   -4.6045   -2.0974 O   0  0  0  0  0  0  0  0  0  0  0  0
   -1.3884   -5.3057   -0.4768 C   0  0  0  0  0  0  0  0  0  0  0  0
   -2.6415   -4.8793   -0.9158 C   0  0  0  0  0  0  0  0  0  0  0  0
   -3.7834   -5.5516   -0.5426 C   0  0  0  0  0  0  0  0  0  0  0  0
   -3.7082   -6.6582    0.2788 C   0  0  0  0  0  0  0  0  0  0  0  0
   -2.4702   -7.0943    0.7088 C   0  0  0  0  0  0  0  0  0  0  0  0
   -1.3254   -6.4219    0.3205 C   0  0  0  0  0  0  0  0  0  0  0  0
 10  9  1  0
  1 10  1  0
  2  1  1  0
  3  2  2  0
  4  3  1  0
 11  4  1  0
 12 11  2  0
 13 11  1  0
 14 13  2  0
 15 14  1  0
 16 15  2  0
 17 16  1  0
 18 17  2  0
 18 13  1  0
  5  4  2  0
  6  5  1  0
  7  5  1  0
  7  1  2  0
  6  8  1  0
M  END
> <structure>
ox2_shuffle_esm0

> <pose>
4

> <is_reference>
0

> <rmsd_to_reference_A>
6.078

> <vina_score>
-4.9

> <minimizedAffinity>
-4.98800

> <minimizedRMSD>
0.06524

> <CNNscore>
0.7203395963

> <CNNaffinity>
4.6028013229

> <CNN_VS>
3.3155801296

> <CNNaffinity_variance>
0.1002356410

$$$$
ox2_shuffle_esm0_pose5


 18 19  0  0  0  0  0  0  0  0999 V2000
   -3.4849   -6.1140   -0.4619 C   0  0  0  0  0  0  0  0  0  0  0  0
   -3.1474   -4.9321   -1.1108 C   0  0  0  0  0  0  0  0  0  0  0  0
   -1.8961   -4.3955   -0.9390 C   0  0  0  0  0  0  0  0  0  0  0  0
   -0.9644   -5.0133   -0.1373 C   0  0  0  0  0  0  0  0  0  0  0  0
   -1.3102   -6.1825    0.5261 C   0  0  0  0  0  0  0  0  0  0  0  0
   -0.3907   -6.7710    1.3385 O   0  0  0  0  0  0  0  0  0  0  0  0
   -2.5673   -6.7304    0.3507 C   0  0  0  0  0  0  0  0  0  0  0  0
    0.4563   -6.3844    1.4446 H   0  0  0  0  0  0  0  0  0  0  0  0
   -5.5619   -6.3346   -1.6908 C   0  0  0  0  0  0  0  0  0  0  0  0
   -4.6951   -6.6986   -0.6123 O   0  0  0  0  0  0  0  0  0  0  0  0
    0.4096   -4.4798    0.0636 C   0  0  0  0  0  0  0  0  0  0  0  0
    1.3175   -5.1006   -0.4273 O   0  0  0  0  0  0  0  0  0  0  0  0
    0.7408   -3.2186    0.7577 C   0  0  0  0  0  0  0  0  0  0  0  0
    1.9339   -2.5705    0.4395 C   0  0  0  0  0  0  0  0  0  0  0  0
    2.2709   -1.3815    1.0456 C   0  0  0  0  0  0  0  0  0  0  0  0
    1.4346   -0.8125    1.9847 C   0  0  0  0  0  0  0  0  0  0  0  0
    0.2458   -1.4419    2.2975 C   0  0  0  0  0  0  0  0  0  0  0  0
   -0.0928   -2.6302    1.6764 C   0  0  0  0  0  0  0  0  0  0  0  0
 10  9  1  0
  1 10  1  0
  2  1  1  0
  3  2  2  0
  4  3  1  0
 11  4  1  0
 12 11  2  0
 13 11  1  0
 14 13  2  0
 15 14  1  0
 16 15  2  0
 17 16  1  0
 18 17  2  0
 18 13  1  0
  5  4  2  0
  6  5  1  0
  7  5  1  0
  7  1  2  0
  6  8  1  0
M  END
> <structure>
ox2_shuffle_esm0

> <pose>
5

> <is_reference>
0

> <rmsd_to_reference_A>
2.321

> <vina_score>
-4.8

> <minimizedAffinity>
-4.93259

> <minimizedRMSD>
0.11556

> <CNNscore>
0.7469712496

> <CNNaffinity>
4.1397557259

> <CNN_VS>
3.0922784805

> <CNNaffinity_variance>
0.1229236946

$$$$
ox2_shuffle_esm0_pose6


 18 19  0  0  0  0  0  0  0  0999 V2000
    1.1835   -6.3170   -0.1207 C   0  0  0  0  0  0  0  0  0  0  0  0
    0.3809   -7.3916    0.2419 C   0  0  0  0  0  0  0  0  0  0  0  0
   -0.9705   -7.2109    0.3988 C   0  0  0  0  0  0  0  0  0  0  0  0
   -1.5467   -5.9785    0.1960 C   0  0  0  0  0  0  0  0  0  0  0  0
   -0.7410   -4.9006   -0.1468 C   0  0  0  0  0  0  0  0  0  0  0  0
   -1.3183   -3.6812   -0.3177 O   0  0  0  0  0  0  0  0  0  0  0  0
    0.6193   -5.0805   -0.3119 C   0  0  0  0  0  0  0  0  0  0  0  0
   -2.2424   -3.5799   -0.2011 H   0  0  0  0  0  0  0  0  0  0  0  0
    3.4488   -5.7266    0.5058 C   0  0  0  0  0  0  0  0  0  0  0  0
    2.5167   -6.4432   -0.3090 O   0  0  0  0  0  0  0  0  0  0  0  0
   -3.0083   -5.7374    0.3352 C   0  0  0  0  0  0  0  0  0  0  0  0
   -3.3832   -5.2071    1.3491 O   0  0  0  0  0  0  0  0  0  0  0  0
   -4.0230   -6.0357   -0.6956 C   0  0  0  0  0  0  0  0  0  0  0  0
   -5.0280   -6.9567   -0.4013 C   0  0  0  0  0  0  0  0  0  0  0  0
   -6.0077   -7.2470   -1.3246 C   0  0  0  0  0  0  0  0  0  0  0  0
   -6.0081   -6.6333   -2.5607 C   0  0  0  0  0  0  0  0  0  0  0  0
   -5.0241   -5.7106   -2.8552 C   0  0  0  0  0  0  0  0  0  0  0  0
   -4.0486   -5.4146   -1.9198 C   0  0  0  0  0  0  0  0  0  0  0  0
 10  9  1  0
  1 10  1  0
  2  1  1  0
  3  2  2  0
  4  3  1  0
 11  4  1  0
 12 11  2  0
 13 11  1  0
 14 13  2  0
 15 14  1  0
 16 15  2  0
 17 16  1  0
 18 17  2  0
 18 13  1  0
  5  4  2  0
  6  5  1  0
  7  5  1  0
  7  1  2  0
  6  8  1  0
M  END
> <structure>
ox2_shuffle_esm0

> <pose>
6

> <is_reference>
0

> <rmsd_to_reference_A>
7.019

> <vina_score>
-4.8

> <minimizedAffinity>
-4.94431

> <minimizedRMSD>
0.19354

> <CNNscore>
0.2849850953

> <CNNaffinity>
3.4446728230

> <CNN_VS>
0.9816803932

> <CNNaffinity_variance>
0.8112367988

$$$$
ox2_shuffle_esm0_pose7


 18 19  0  0  0  0  0  0  0  0999 V2000
    1.5065   -1.8286    1.1717 C   0  0  0  0  0  0  0  0  0  0  0  0
    0.3041   -1.9481    1.8578 C   0  0  0  0  0  0  0  0  0  0  0  0
   -0.4020   -3.1226    1.7951 C   0  0  0  0  0  0  0  0  0  0  0  0
    0.0663   -4.1918    1.0660 C   0  0  0  0  0  0  0  0  0  0  0  0
    1.2576   -4.0641    0.3652 C   0  0  0  0  0  0  0  0  0  0  0  0
    1.6981   -5.1176   -0.3743 O   0  0  0  0  0  0  0  0  0  0  0  0
    1.9749   -2.8849    0.4306 C   0  0  0  0  0  0  0  0  0  0  0  0
    1.1978   -5.9092   -0.4064 H   0  0  0  0  0  0  0  0  0  0  0  0
    3.0401   -0.3828    2.3672 C   0  0  0  0  0  0  0  0  0  0  0  0
    2.2529   -0.7023    1.2165 O   0  0  0  0  0  0  0  0  0  0  0  0
   -0.6538   -5.4910    0.9837 C   0  0  0  0  0  0  0  0  0  0  0  0
   -0.1567   -6.4310    1.5502 O   0  0  0  0  0  0  0  0  0  0  0  0
   -1.9566   -5.7027    0.3223 C   0  0  0  0  0  0  0  0  0  0  0  0
   -2.3213   -4.8607   -0.7277 C   0  0  0  0  0  0  0  0  0  0  0  0
   -3.5170   -5.0380   -1.3877 C   0  0  0  0  0  0  0  0  0  0  0  0
   -4.3777   -6.0507   -1.0169 C   0  0  0  0  0  0  0  0  0  0  0  0
   -4.0191   -6.8968    0.0142 C   0  0  0  0  0  0  0  0  0  0  0  0
   -2.8116   -6.7211    0.6652 C   0  0  0  0  0  0  0  0  0  0  0  0
 10  9  1  0
  1 10  1  0
  2  1  1  0
  3  2  2  0
  4  3  1  0
 11  4  1  0
 12 11  2  0
 13 11  1  0
 14 13  2  0
 15 14  1  0
 16 15  2  0
 17 16  1  0
 18 17  2  0
 18 13  1  0
  5  4  2  0
  6  5  1  0
  7  5  1  0
  7  1  2  0
  6  8  1  0
M  END
> <structure>
ox2_shuffle_esm0

> <pose>
7

> <is_reference>
0

> <rmsd_to_reference_A>
5.987

> <vina_score>
-4.7

> <minimizedAffinity>
-4.88235

> <minimizedRMSD>
0.14309

> <CNNscore>
0.6205353737

> <CNNaffinity>
3.8921210766

> <CNN_VS>
2.4151988029

> <CNNaffinity_variance>
0.2989420593

$$$$
ox2_shuffle_esm0_pose8


 18 19  0  0  0  0  0  0  0  0999 V2000
    2.9391   -7.0738    4.0227 C   0  0  0  0  0  0  0  0  0  0  0  0
    1.5857   -7.3637    4.1325 C   0  0  0  0  0  0  0  0  0  0  0  0
    0.8093   -7.4311    3.0026 C   0  0  0  0  0  0  0  0  0  0  0  0
    1.3534   -7.2198    1.7572 C   0  0  0  0  0  0  0  0  0  0  0  0
    2.7022   -6.9100    1.6505 C   0  0  0  0  0  0  0  0  0  0  0  0
    3.2240   -6.6766    0.4159 O   0  0  0  0  0  0  0  0  0  0  0  0
    3.4891   -6.8483    2.7850 C   0  0  0  0  0  0  0  0  0  0  0  0
    2.6743   -6.7231   -0.3415 H   0  0  0  0  0  0  0  0  0  0  0  0
    3.4007   -7.6600    6.3286 C   0  0  0  0  0  0  0  0  0  0  0  0
    3.7548   -7.0172    5.1000 O   0  0  0  0  0  0  0  0  0  0  0  0
    0.5572   -7.3005    0.5031 C   0  0  0  0  0  0  0  0  0  0  0  0
    0.6098   -8.3323   -0.1157 O   0  0  0  0  0  0  0  0  0  0  0  0
   -0.3420   -6.2449   -0.0050 C   0  0  0  0  0  0  0  0  0  0  0  0
   -1.7127   -6.3620    0.2219 C   0  0  0  0  0  0  0  0  0  0  0  0
   -2.5833   -5.3898   -0.2137 C   0  0  0  0  0  0  0  0  0  0  0  0
   -2.1134   -4.2815   -0.8892 C   0  0  0  0  0  0  0  0  0  0  0  0
   -0.7567   -4.1503   -1.1081 C   0  0  0  0  0  0  0  0  0  0  0  0
    0.1150   -5.1255   -0.6575 C   0  0  0  0  0  0  0  0  0  0  0  0
 10  9  1  0
  1 10  1  0
  2  1  1  0
  3  2  2  0
  4  3  1  0
 11  4  1  0
 12 11  2  0
 13 11  1  0
 14 13  2  0
 15 14  1  0
 16 15  2  0
 17 16  1  0
 18 17  2  0
 18 13  1  0
  5  4  2  0
  6  5  1  0
  7  5  1  0
  7  1  2  0
  6  8  1  0
M  END
> <structure>
ox2_shuffle_esm0

> <pose>
8

> <is_reference>
0

> <rmsd_to_reference_A>
6.739

> <vina_score>
-4.7

> <minimizedAffinity>
-4.81492

> <minimizedRMSD>
0.17032

> <CNNscore>
0.6282967329

> <CNNaffinity>
4.2419362068

> <CNN_VS>
2.6651947498

> <CNNaffinity_variance>
0.6105101705

$$$$
ox2_shuffle_esm0_pose9


 18 19  0  0  0  0  0  0  0  0999 V2000
    3.3652   -2.6180    1.4689 C   0  0  0  0  0  0  0  0  0  0  0  0
    2.4015   -1.6831    1.1116 C   0  0  0  0  0  0  0  0  0  0  0  0
    1.2953   -2.0827    0.4037 C   0  0  0  0  0  0  0  0  0  0  0  0
    1.1223   -3.3993    0.0447 C   0  0  0  0  0  0  0  0  0  0  0  0
    2.0970   -4.3277    0.3842 C   0  0  0  0  0  0  0  0  0  0  0  0
    1.9283   -5.6219    0.0004 O   0  0  0  0  0  0  0  0  0  0  0  0
    3.2082   -3.9319    1.1031 C   0  0  0  0  0  0  0  0  0  0  0  0
    1.1676   -5.8708   -0.4868 H   0  0  0  0  0  0  0  0  0  0  0  0
    5.2367   -1.1279    1.8540 C   0  0  0  0  0  0  0  0  0  0  0  0
    4.4629   -2.2838    2.1853 O   0  0  0  0  0  0  0  0  0  0  0  0
   -0.0672   -3.8820   -0.7067 C   0  0  0  0  0  0  0  0  0  0  0  0
    0.1366   -4.4989   -1.7212 O   0  0  0  0  0  0  0  0  0  0  0  0
   -1.4702   -3.7224   -0.2750 C   0  0  0  0  0  0  0  0  0  0  0  0
   -1.7430   -2.9402    0.8470 C   0  0  0  0  0  0  0  0  0  0  0  0
   -3.0387   -2.7468    1.2707 C   0  0  0  0  0  0  0  0  0  0  0  0
   -4.0912   -3.3272    0.5928 C   0  0  0  0  0  0  0  0  0  0  0  0
   -3.8309   -4.0927   -0.5265 C   0  0  0  0  0  0  0  0  0  0  0  0
   -2.5285   -4.2750   -0.9540 C   0  0  0  0  0  0  0  0  0  0  0  0
 10  9  1  0
  1 10  1  0
  2  1  1  0
  3  2  2  0
  4  3  1  0
 11  4  1  0
 12 11  2  0
 13 11  1  0
 14 13  2  0
 15 14  1  0
 16 15  2  0
 17 16  1  0
 18 17  2  0
 18 13  1  0
  5  4  2  0
  6  5  1  0
  7  5  1  0
  7  1  2  0
  6  8  1  0
M  END
> <structure>
ox2_shuffle_esm0

> <pose>
9

> <is_reference>
0

> <rmsd_to_reference_A>
5.998

> <vina_score>
-4.6

> <minimizedAffinity>
-4.98532

> <minimizedRMSD>
0.11953

> <CNNscore>
0.7252275944

> <CNNaffinity>
4.7695012093

> <CNN_VS>
3.4589738846

> <CNNaffinity_variance>
0.1543055922

$$$$
