ox2_shuffle_pose0_reference


 18 19  0  0  0  0  0  0  0  0999 V2000
   -3.5768   -6.1876    7.7688 C   0  0  0  0  0  0  0  0  0  0  0  0
   -2.6167   -5.4181    8.4073 C   0  0  0  0  0  0  0  0  0  0  0  0
   -1.9266   -4.4445    7.7172 C   0  0  0  0  0  0  0  0  0  0  0  0
   -2.1811   -4.2278    6.3691 C   0  0  0  0  0  0  0  0  0  0  0  0
   -3.1446   -5.0101    5.7156 C   0  0  0  0  0  0  0  0  0  0  0  0
   -3.3973   -4.8066    4.3924 O   0  0  0  0  0  0  0  0  0  0  0  0
   -3.8361   -5.9824    6.4269 C   0  0  0  0  0  0  0  0  0  0  0  0
   -2.9256   -4.1482    3.9212 H   0  0  0  0  0  0  0  0  0  0  0  0
   -5.5952   -6.9847    8.8077 C   0  0  0  0  0  0  0  0  0  0  0  0
   -4.2290   -7.1341    8.5182 O   0  0  0  0  0  0  0  0  0  0  0  0
   -1.4281   -3.1664    5.6111 C   0  0  0  0  0  0  0  0  0  0  0  0
   -1.5636   -3.0788    4.4117 O   0  0  0  0  0  0  0  0  0  0  0  0
   -0.5138   -2.2496    6.3236 C   0  0  0  0  0  0  0  0  0  0  0  0
   -1.0057   -1.1242    6.9743 C   0  0  0  0  0  0  0  0  0  0  0  0
   -0.1316   -0.2673    7.6262 C   0  0  0  0  0  0  0  0  0  0  0  0
    1.2347   -0.5397    7.6372 C   0  0  0  0  0  0  0  0  0  0  0  0
    1.7289   -1.6565    6.9745 C   0  0  0  0  0  0  0  0  0  0  0  0
    0.8537   -2.5119    6.3017 C   0  0  0  0  0  0  0  0  0  0  0  0
 10  9  1  0
  1 10  1  0
  2  1  1  0
  3  2  2  0
  4  3  1  0
 11  4  1  0
 12 11  2  0
 13 11  1  0
 14 13  2  0
 15 14  1  0
 16 15  2  0
 17 16  1  0
 18 17  2  0
 18 13  1  0
  5  4  2  0
  6  5  1  0
  7  1  2  0
  7  5  1  0
  6  8  1  0
M  END
> <structure>
ox2_shuffle

> <pose>
0

> <is_reference>
1

> <rmsd_to_reference_A>
0.000

> <vina_score>


> <minimizedAffinity>
-3.85054

> <minimizedRMSD>
0.44108

> <CNNscore>
0.4526593387

> <CNNaffinity>
3.4647405148

> <CNN_VS>
1.5683470964

> <CNNaffinity_variance>
0.2137899846

$$$$
ox2_shuffle_pose1


 18 19  0  0  0  0  0  0  0  0999 V2000
    1.5366   -2.2662    7.3077 C   0  0  0  0  0  0  0  0  0  0  0  0
    1.2771   -3.5118    7.8578 C   0  0  0  0  0  0  0  0  0  0  0  0
   -0.0107   -4.0019    7.9060 C   0  0  0  0  0  0  0  0  0  0  0  0
   -1.0659   -3.2484    7.4095 C   0  0  0  0  0  0  0  0  0  0  0  0
   -0.8115   -1.9829    6.8605 C   0  0  0  0  0  0  0  0  0  0  0  0
   -1.8415   -1.2353    6.3756 O   0  0  0  0  0  0  0  0  0  0  0  0
    0.4924   -1.5068    6.8130 C   0  0  0  0  0  0  0  0  0  0  0  0
   -2.7177   -1.5654    6.4122 H   0  0  0  0  0  0  0  0  0  0  0  0
    3.2306   -0.8012    6.4292 C   0  0  0  0  0  0  0  0  0  0  0  0
    2.8412   -1.8442    7.2861 O   0  0  0  0  0  0  0  0  0  0  0  0
   -2.4745   -3.7791    7.4634 C   0  0  0  0  0  0  0  0  0  0  0  0
   -3.2996   -3.2171    8.1473 O   0  0  0  0  0  0  0  0  0  0  0  0
   -2.8427   -4.9899    6.7005 C   0  0  0  0  0  0  0  0  0  0  0  0
   -3.1873   -4.9029    5.3563 C   0  0  0  0  0  0  0  0  0  0  0  0
   -3.5430   -6.0474    4.6600 C   0  0  0  0  0  0  0  0  0  0  0  0
   -3.5471   -7.2838    5.3028 C   0  0  0  0  0  0  0  0  0  0  0  0
   -3.2174   -7.3697    6.6500 C   0  0  0  0  0  0  0  0  0  0  0  0
   -2.8757   -6.2163    7.3595 C   0  0  0  0  0  0  0  0  0  0  0  0
 10  9  1  0
  1 10  1  0
  2  1  1  0
  3  2  2  0
  4  3  1  0
 11  4  1  0
 12 11  2  0
 13 11  1  0
 14 13  2  0
 15 14  1  0
 16 15  2  0
 17 16  1  0
 18 17  2  0
 18 13  1  0
  5  4  2  0
  6  5  1  0
  7  1  2  0
  7  5  1  0
  6  8  1  0
M  END
> <structure>
ox2_shuffle

> <pose>
1

> <is_reference>
0

> <rmsd_to_reference_A>
6.030

> <vina_score>
-4.5

> <minimizedAffinity>
-4.57655

> <minimizedRMSD>
0.07768

> <CNNscore>
0.4559978843

> <CNNaffinity>
3.4218578339

> <CNN_VS>
1.5603599548

> <CNNaffinity_variance>
0.1949464232

$$$$
ox2_shuffle_pose2


 18 19  0  0  0  0  0  0  0  0999 V2000
   -4.7220   -8.2480    2.7857 C   0  0  0  0  0  0  0  0  0  0  0  0
   -5.9302   -8.9133    2.6442 C   0  0  0  0  0  0  0  0  0  0  0  0
   -6.9116   -8.4158    1.8152 C   0  0  0  0  0  0  0  0  0  0  0  0
   -6.7045   -7.2335    1.1152 C   0  0  0  0  0  0  0  0  0  0  0  0
   -5.4875   -6.5505    1.2614 C   0  0  0  0  0  0  0  0  0  0  0  0
   -5.2778   -5.3893    0.5814 O   0  0  0  0  0  0  0  0  0  0  0  0
   -4.5060   -7.0698    2.0962 C   0  0  0  0  0  0  0  0  0  0  0  0
   -5.9463   -5.0474    0.0208 H   0  0  0  0  0  0  0  0  0  0  0  0
   -3.5991   -8.2801    4.9137 C   0  0  0  0  0  0  0  0  0  0  0  0
   -3.7886   -8.8032    3.6232 O   0  0  0  0  0  0  0  0  0  0  0  0
   -7.7745   -6.6852    0.2090 C   0  0  0  0  0  0  0  0  0  0  0  0
   -7.6543   -6.7915   -0.9904 O   0  0  0  0  0  0  0  0  0  0  0  0
   -8.9562   -6.0045    0.7788 C   0  0  0  0  0  0  0  0  0  0  0  0
   -9.8752   -6.7075    1.5488 C   0  0  0  0  0  0  0  0  0  0  0  0
  -10.9850   -6.0557    2.0651 C   0  0  0  0  0  0  0  0  0  0  0  0
  -11.1730   -4.6975    1.8203 C   0  0  0  0  0  0  0  0  0  0  0  0
  -10.2627   -3.9967    1.0382 C   0  0  0  0  0  0  0  0  0  0  0  0
   -9.1534   -4.6544    0.5021 C   0  0  0  0  0  0  0  0  0  0  0  0
 10  9  1  0
  1 10  1  0
  2  1  1  0
  3  2  2  0
  4  3  1  0
 11  4  1  0
 12 11  2  0
 13 11  1  0
 14 13  2  0
 15 14  1  0
 16 15  2  0
 17 16  1  0
 18 17  2  0
 18 13  1  0
  5  4  2  0
  6  5  1  0
  7  1  2  0
  7  5  1  0
  6  8  1  0
M  END
> <structure>
ox2_shuffle

> <pose>
2

> <is_reference>
0

> <rmsd_to_reference_A>
9.588

> <vina_score>
-4.4

> <minimizedAffinity>
-4.43736

> <minimizedRMSD>
0.37043

> <CNNscore>
0.3562034369

> <CNNaffinity>
3.2189481258

> <CNN_VS>
1.1466003656

> <CNNaffinity_variance>
0.3280788362

$$$$
ox2_shuffle_pose3


 18 19  0  0  0  0  0  0  0  0999 V2000
   -4.0098   -8.9676   -0.5357 C   0  0  0  0  0  0  0  0  0  0  0  0
   -5.2467   -9.1452   -1.1376 C   0  0  0  0  0  0  0  0  0  0  0  0
   -6.2832   -8.2756   -0.8765 C   0  0  0  0  0  0  0  0  0  0  0  0
   -6.1033   -7.2124   -0.0009 C   0  0  0  0  0  0  0  0  0  0  0  0
   -4.8566   -7.0333    0.6171 C   0  0  0  0  0  0  0  0  0  0  0  0
   -4.6727   -5.9953    1.4798 O   0  0  0  0  0  0  0  0  0  0  0  0
   -3.8204   -7.9149    0.3390 C   0  0  0  0  0  0  0  0  0  0  0  0
   -5.3782   -5.4060    1.6608 H   0  0  0  0  0  0  0  0  0  0  0  0
   -1.6912   -9.4371   -0.9752 C   0  0  0  0  0  0  0  0  0  0  0  0
   -3.0221   -9.8679   -0.8455 O   0  0  0  0  0  0  0  0  0  0  0  0
   -7.2334   -6.2603    0.2870 C   0  0  0  0  0  0  0  0  0  0  0  0
   -7.1906   -5.1320   -0.1469 O   0  0  0  0  0  0  0  0  0  0  0  0
   -8.3799   -6.6947    1.1122 C   0  0  0  0  0  0  0  0  0  0  0  0
   -8.3105   -7.8644    1.8613 C   0  0  0  0  0  0  0  0  0  0  0  0
   -9.4010   -8.2637    2.6196 C   0  0  0  0  0  0  0  0  0  0  0  0
  -10.5594   -7.4893    2.6380 C   0  0  0  0  0  0  0  0  0  0  0  0
  -10.6351   -6.3285    1.8784 C   0  0  0  0  0  0  0  0  0  0  0  0
   -9.5462   -5.9321    1.0999 C   0  0  0  0  0  0  0  0  0  0  0  0
 10  9  1  0
  1 10  1  0
  2  1  1  0
  3  2  2  0
  4  3  1  0
 11  4  1  0
 12 11  2  0
 13 11  1  0
 14 13  2  0
 15 14  1  0
 16 15  2  0
 17 16  1  0
 18 17  2  0
 18 13  1  0
  5  4  2  0
  6  5  1  0
  7  1  2  0
  7  5  1  0
  6  8  1  0
M  END
> <structure>
ox2_shuffle

> <pose>
3

> <is_reference>
0

> <rmsd_to_reference_A>
10.485

> <vina_score>
-4.3

> <minimizedAffinity>
-4.26800

> <minimizedRMSD>
0.33247

> <CNNscore>
0.3416892886

> <CNNaffinity>
3.4845664501

> <CNN_VS>
1.1906390190

> <CNNaffinity_variance>
0.1269813925

$$$$
ox2_shuffle_pose4


 18 19  0  0  0  0  0  0  0  0999 V2000
   -8.6709   -6.0227    0.4239 C   0  0  0  0  0  0  0  0  0  0  0  0
   -8.5363   -7.2154    1.1187 C   0  0  0  0  0  0  0  0  0  0  0  0
   -7.2880   -7.6838    1.4683 C   0  0  0  0  0  0  0  0  0  0  0  0
   -6.1484   -6.9687    1.1227 C   0  0  0  0  0  0  0  0  0  0  0  0
   -6.2790   -5.7672    0.4116 C   0  0  0  0  0  0  0  0  0  0  0  0
   -5.1666   -5.0620    0.0647 O   0  0  0  0  0  0  0  0  0  0  0  0
   -7.5448   -5.3046    0.0721 C   0  0  0  0  0  0  0  0  0  0  0  0
   -4.3174   -5.3819    0.2980 H   0  0  0  0  0  0  0  0  0  0  0  0
  -10.3864   -4.3368    0.4979 C   0  0  0  0  0  0  0  0  0  0  0  0
   -9.9434   -5.6136    0.1136 O   0  0  0  0  0  0  0  0  0  0  0  0
   -4.7826   -7.4784    1.5011 C   0  0  0  0  0  0  0  0  0  0  0  0
   -4.0446   -7.9054    0.6422 O   0  0  0  0  0  0  0  0  0  0  0  0
   -4.3533   -7.4765    2.9149 C   0  0  0  0  0  0  0  0  0  0  0  0
   -4.3257   -8.6565    3.6487 C   0  0  0  0  0  0  0  0  0  0  0  0
   -3.9327   -8.6333    4.9779 C   0  0  0  0  0  0  0  0  0  0  0  0
   -3.5562   -7.4316    5.5740 C   0  0  0  0  0  0  0  0  0  0  0  0
   -3.5979   -6.2489    4.8457 C   0  0  0  0  0  0  0  0  0  0  0  0
   -4.0102   -6.2653    3.5115 C   0  0  0  0  0  0  0  0  0  0  0  0
 10  9  1  0
  1 10  1  0
  2  1  1  0
  3  2  2  0
  4  3  1  0
 11  4  1  0
 12 11  2  0
 13 11  1  0
 14 13  2  0
 15 14  1  0
 16 15  2  0
 17 16  1  0
 18 17  2  0
 18 13  1  0
  5  4  2  0
  6  5  1  0
  7  1  2  0
  7  5  1  0
  6  8  1  0
M  END
> <structure>
ox2_shuffle

> <pose>
4

> <is_reference>
0

> <rmsd_to_reference_A>
8.200

> <vina_score>
-4.2

> <minimizedAffinity>
-4.39203

> <minimizedRMSD>
0.33134

> <CNNscore>
0.5246346593

> <CNNaffinity>
3.7152183056

> <CNN_VS>
1.9491323233

> <CNNaffinity_variance>
0.0550645590

$$$$
ox2_shuffle_pose5


 18 19  0  0  0  0  0  0  0  0999 V2000
    0.1934   -2.6360    7.5069 C   0  0  0  0  0  0  0  0  0  0  0  0
   -0.3877   -3.5893    8.3275 C   0  0  0  0  0  0  0  0  0  0  0  0
   -1.4558   -4.3400    7.8832 C   0  0  0  0  0  0  0  0  0  0  0  0
   -1.9662   -4.1434    6.6060 C   0  0  0  0  0  0  0  0  0  0  0  0
   -1.3875   -3.1732    5.7750 C   0  0  0  0  0  0  0  0  0  0  0  0
   -1.8854   -2.9717    4.5222 O   0  0  0  0  0  0  0  0  0  0  0  0
   -0.3085   -2.4299    6.2358 C   0  0  0  0  0  0  0  0  0  0  0  0
   -2.6137   -3.4782    4.2205 H   0  0  0  0  0  0  0  0  0  0  0  0
    1.5355   -0.6402    7.5339 C   0  0  0  0  0  0  0  0  0  0  0  0
    1.2565   -1.9299    8.0125 O   0  0  0  0  0  0  0  0  0  0  0  0
   -3.1337   -4.9598    6.1168 C   0  0  0  0  0  0  0  0  0  0  0  0
   -3.2335   -5.2121    4.9380 O   0  0  0  0  0  0  0  0  0  0  0  0
   -4.1616   -5.4336    7.0679 C   0  0  0  0  0  0  0  0  0  0  0  0
   -4.1828   -6.7596    7.4839 C   0  0  0  0  0  0  0  0  0  0  0  0
   -5.1632   -7.1890    8.3661 C   0  0  0  0  0  0  0  0  0  0  0  0
   -6.1175   -6.2921    8.8402 C   0  0  0  0  0  0  0  0  0  0  0  0
   -6.1053   -4.9696    8.4124 C   0  0  0  0  0  0  0  0  0  0  0  0
   -5.1306   -4.5373    7.5109 C   0  0  0  0  0  0  0  0  0  0  0  0
 10  9  1  0
  1 10  1  0
  2  1  1  0
  3  2  2  0
  4  3  1  0
 11  4  1  0
 12 11  2  0
 13 11  1  0
 14 13  2  0
 15 14  1  0
 16 15  2  0
 17 16  1  0
 18 17  2  0
 18 13  1  0
  5  4  2  0
  6  5  1  0
  7  1  2  0
  7  5  1  0
  6  8  1  0
M  END
> <structure>
ox2_shuffle

> <pose>
5

> <is_reference>
0

> <rmsd_to_reference_A>
5.809

> <vina_score>
-4.2

> <minimizedAffinity>
-4.59677

> <minimizedRMSD>
0.38962

> <CNNscore>
0.4333367050

> <CNNaffinity>
3.4575402737

> <CNN_VS>
1.4982790947

> <CNNaffinity_variance>
0.1853477806

$$$$
ox2_shuffle_pose6


 18 19  0  0  0  0  0  0  0  0999 V2000
   -8.0292   -8.3219    2.0205 C   0  0  0  0  0  0  0  0  0  0  0  0
   -9.2936   -8.0976    2.5436 C   0  0  0  0  0  0  0  0  0  0  0  0
  -10.0613   -7.0453    2.0925 C   0  0  0  0  0  0  0  0  0  0  0  0
   -9.5736   -6.1923    1.1107 C   0  0  0  0  0  0  0  0  0  0  0  0
   -8.2915   -6.4087    0.5849 C   0  0  0  0  0  0  0  0  0  0  0  0
   -7.8041   -5.5740   -0.3750 O   0  0  0  0  0  0  0  0  0  0  0  0
   -7.5325   -7.4777    1.0463 C   0  0  0  0  0  0  0  0  0  0  0  0
   -8.3236   -4.8561   -0.6794 H   0  0  0  0  0  0  0  0  0  0  0  0
   -5.9758   -9.2363    2.8797 C   0  0  0  0  0  0  0  0  0  0  0  0
   -7.3226   -9.3905    2.5123 O   0  0  0  0  0  0  0  0  0  0  0  0
  -10.4085   -5.0405    0.6170 C   0  0  0  0  0  0  0  0  0  0  0  0
  -11.0456   -5.1599   -0.4048 O   0  0  0  0  0  0  0  0  0  0  0  0
  -10.4352   -3.7656    1.3638 C   0  0  0  0  0  0  0  0  0  0  0  0
   -9.5269   -2.7547    1.0702 C   0  0  0  0  0  0  0  0  0  0  0  0
   -9.5575   -1.5702    1.7909 C   0  0  0  0  0  0  0  0  0  0  0  0
  -10.5027   -1.3896    2.7986 C   0  0  0  0  0  0  0  0  0  0  0  0
  -11.4010   -2.4051    3.1015 C   0  0  0  0  0  0  0  0  0  0  0  0
  -11.3620   -3.6072    2.3906 C   0  0  0  0  0  0  0  0  0  0  0  0
 10  9  1  0
  1 10  1  0
  2  1  1  0
  3  2  2  0
  4  3  1  0
 11  4  1  0
 12 11  2  0
 13 11  1  0
 14 13  2  0
 15 14  1  0
 16 15  2  0
 17 16  1  0
 18 17  2  0
 18 13  1  0
  5  4  2  0
  6  5  1  0
  7  1  2  0
  7  5  1  0
  6  8  1  0
M  END
> <structure>
ox2_shuffle

> <pose>
6

> <is_reference>
0

> <rmsd_to_reference_A>
10.082

> <vina_score>
-4.0

> <minimizedAffinity>
-4.02664

> <minimizedRMSD>
0.84921

> <CNNscore>
0.3229171038

> <CNNaffinity>
3.1722042561

> <CNN_VS>
1.0243589878

> <CNNaffinity_variance>
0.3071964979

$$$$
ox2_shuffle_pose7


 18 19  0  0  0  0  0  0  0  0999 V2000
    4.6122   -3.5384    4.7976 C   0  0  0  0  0  0  0  0  0  0  0  0
    4.5140   -4.9126    4.9489 C   0  0  0  0  0  0  0  0  0  0  0  0
    4.6219   -5.7470    3.8566 C   0  0  0  0  0  0  0  0  0  0  0  0
    4.8228   -5.2180    2.5881 C   0  0  0  0  0  0  0  0  0  0  0  0
    4.9125   -3.8270    2.4280 C   0  0  0  0  0  0  0  0  0  0  0  0
    5.1054   -3.3001    1.1863 O   0  0  0  0  0  0  0  0  0  0  0  0
    4.8088   -3.0010    3.5397 C   0  0  0  0  0  0  0  0  0  0  0  0
    5.1740   -3.8660    0.4427 H   0  0  0  0  0  0  0  0  0  0  0  0
    3.2342   -2.4463    6.4395 C   0  0  0  0  0  0  0  0  0  0  0  0
    4.5016   -2.7688    5.9279 O   0  0  0  0  0  0  0  0  0  0  0  0
    4.9391   -6.1259    1.3914 C   0  0  0  0  0  0  0  0  0  0  0  0
    5.7032   -5.8412    0.4979 O   0  0  0  0  0  0  0  0  0  0  0  0
    4.1113   -7.3464    1.2997 C   0  0  0  0  0  0  0  0  0  0  0  0
    2.7311   -7.2562    1.1654 C   0  0  0  0  0  0  0  0  0  0  0  0
    1.9682   -8.4126    1.0946 C   0  0  0  0  0  0  0  0  0  0  0  0
    2.5856   -9.6603    1.1483 C   0  0  0  0  0  0  0  0  0  0  0  0
    3.9634   -9.7511    1.2986 C   0  0  0  0  0  0  0  0  0  0  0  0
    4.7330   -8.5894    1.3883 C   0  0  0  0  0  0  0  0  0  0  0  0
 10  9  1  0
  1 10  1  0
  2  1  1  0
  3  2  2  0
  4  3  1  0
 11  4  1  0
 12 11  2  0
 13 11  1  0
 14 13  2  0
 15 14  1  0
 16 15  2  0
 17 16  1  0
 18 17  2  0
 18 13  1  0
  5  4  2  0
  6  5  1  0
  7  1  2  0
  7  5  1  0
  6  8  1  0
M  END
> <structure>
ox2_shuffle

> <pose>
7

> <is_reference>
0

> <rmsd_to_reference_A>
9.445

> <vina_score>
-4.0

> <minimizedAffinity>
-4.10447

> <minimizedRMSD>
0.12474

> <CNNscore>
0.2713651061

> <CNNaffinity>
2.8664786816

> <CNN_VS>
0.7778623104

> <CNNaffinity_variance>
0.5889956951

$$$$
ox2_shuffle_pose8


 18 19  0  0  0  0  0  0  0  0999 V2000
    1.1618   -1.7000    6.9095 C   0  0  0  0  0  0  0  0  0  0  0  0
    1.3968   -3.0480    7.1306 C   0  0  0  0  0  0  0  0  0  0  0  0
    0.3625   -3.8921    7.4739 C   0  0  0  0  0  0  0  0  0  0  0  0
   -0.9285   -3.3981    7.6096 C   0  0  0  0  0  0  0  0  0  0  0  0
   -1.1703   -2.0329    7.3970 C   0  0  0  0  0  0  0  0  0  0  0  0
   -2.4329   -1.5402    7.5317 O   0  0  0  0  0  0  0  0  0  0  0  0
   -0.1182   -1.1970    7.0445 C   0  0  0  0  0  0  0  0  0  0  0  0
   -3.1360   -2.1119    7.7697 H   0  0  0  0  0  0  0  0  0  0  0  0
    3.0218   -1.2542    5.4495 C   0  0  0  0  0  0  0  0  0  0  0  0
    2.2372   -0.9189    6.5651 O   0  0  0  0  0  0  0  0  0  0  0  0
   -2.0620   -4.3163    7.9863 C   0  0  0  0  0  0  0  0  0  0  0  0
   -2.5401   -4.2516    9.0963 O   0  0  0  0  0  0  0  0  0  0  0  0
   -2.5733   -5.3052    7.0144 C   0  0  0  0  0  0  0  0  0  0  0  0
   -2.5545   -6.6628    7.3094 C   0  0  0  0  0  0  0  0  0  0  0  0
   -3.0261   -7.5778    6.3806 C   0  0  0  0  0  0  0  0  0  0  0  0
   -3.5276   -7.1351    5.1578 C   0  0  0  0  0  0  0  0  0  0  0  0
   -3.5340   -5.7794    4.8567 C   0  0  0  0  0  0  0  0  0  0  0  0
   -3.0434   -4.8569    5.7825 C   0  0  0  0  0  0  0  0  0  0  0  0
 10  9  1  0
  1 10  1  0
  2  1  1  0
  3  2  2  0
  4  3  1  0
 11  4  1  0
 12 11  2  0
 13 11  1  0
 14 13  2  0
 15 14  1  0
 16 15  2  0
 17 16  1  0
 18 17  2  0
 18 13  1  0
  5  4  2  0
  6  5  1  0
  7  1  2  0
  7  5  1  0
  6  8  1  0
M  END
> <structure>
ox2_shuffle

> <pose>
8

> <is_reference>
0

> <rmsd_to_reference_A>
6.009

> <vina_score>
-4.0

> <minimizedAffinity>
-4.47810

> <minimizedRMSD>
1.04573

> <CNNscore>
0.4609644115

> <CNNaffinity>
3.4146521091

> <CNN_VS>
1.5740331411

> <CNNaffinity_variance>
0.2194042355

$$$$
ox2_shuffle_pose9


 18 19  0  0  0  0  0  0  0  0999 V2000
   -8.1482    4.0082    3.1224 C   0  0  0  0  0  0  0  0  0  0  0  0
   -9.4420    3.5304    3.2621 C   0  0  0  0  0  0  0  0  0  0  0  0
   -9.6824    2.1750    3.3434 C   0  0  0  0  0  0  0  0  0  0  0  0
   -8.6300    1.2714    3.2787 C   0  0  0  0  0  0  0  0  0  0  0  0
   -7.3201    1.7494    3.1280 C   0  0  0  0  0  0  0  0  0  0  0  0
   -6.2828    0.8693    3.0607 O   0  0  0  0  0  0  0  0  0  0  0  0
   -7.0932    3.1185    3.0554 C   0  0  0  0  0  0  0  0  0  0  0  0
   -6.4461   -0.0520    3.1106 H   0  0  0  0  0  0  0  0  0  0  0  0
   -8.1975    6.0448    1.8422 C   0  0  0  0  0  0  0  0  0  0  0  0
   -7.9816    5.3687    3.0539 O   0  0  0  0  0  0  0  0  0  0  0  0
   -8.8890   -0.2092    3.3653 C   0  0  0  0  0  0  0  0  0  0  0  0
   -8.5564   -0.8173    4.3572 O   0  0  0  0  0  0  0  0  0  0  0  0
   -9.5287   -0.9211    2.2390 C   0  0  0  0  0  0  0  0  0  0  0  0
   -9.4872   -0.3923    0.9542 C   0  0  0  0  0  0  0  0  0  0  0  0
  -10.1049   -1.0662   -0.0888 C   0  0  0  0  0  0  0  0  0  0  0  0
  -10.7553   -2.2749    0.1491 C   0  0  0  0  0  0  0  0  0  0  0  0
  -10.8087   -2.7974    1.4359 C   0  0  0  0  0  0  0  0  0  0  0  0
  -10.2037   -2.1122    2.4917 C   0  0  0  0  0  0  0  0  0  0  0  0
 10  9  1  0
  1 10  1  0
  2  1  1  0
  3  2  2  0
  4  3  1  0
 11  4  1  0
 12 11  2  0
 13 11  1  0
 14 13  2  0
 15 14  1  0
 16 15  2  0
 17 16  1  0
 18 17  2  0
 18 13  1  0
  5  4  2  0
  6  5  1  0
  7  1  2  0
  7  5  1  0
  6  8  1  0
M  END
> <structure>
ox2_shuffle

> <pose>
9

> <is_reference>
0

> <rmsd_to_reference_A>
11.302

> <vina_score>
-4.0

> <minimizedAffinity>
-4.09890

> <minimizedRMSD>
0.20884

> <CNNscore>
0.4373742342

> <CNNaffinity>
3.2743766308

> <CNN_VS>
1.4321279526

> <CNNaffinity_variance>
0.5719092488

$$$$
