ox3_orig_f8_pose0_reference


 18 19  0  0  0  0  0  0  0  0999 V2000
   -1.2325   -3.5392    0.9353 C   0  0  0  0  0  0  0  0  0  0  0  0
   -1.7533   -2.4201    1.5876 C   0  0  0  0  0  0  0  0  0  0  0  0
   -1.2178   -1.1650    1.3456 C   0  0  0  0  0  0  0  0  0  0  0  0
   -0.1635   -1.0088    0.4510 C   0  0  0  0  0  0  0  0  0  0  0  0
    0.3556   -2.1349   -0.1873 C   0  0  0  0  0  0  0  0  0  0  0  0
    1.4043   -1.9947   -1.0466 O   0  0  0  0  0  0  0  0  0  0  0  0
   -0.1847   -3.3903    0.0630 C   0  0  0  0  0  0  0  0  0  0  0  0
    1.7646   -1.1456   -1.2115 H   0  0  0  0  0  0  0  0  0  0  0  0
   -2.4128   -5.1233    2.3482 C   0  0  0  0  0  0  0  0  0  0  0  0
   -1.7277   -4.8046    1.1368 O   0  0  0  0  0  0  0  0  0  0  0  0
    0.4336    0.3445    0.1863 C   0  0  0  0  0  0  0  0  0  0  0  0
    0.8753    0.5684   -0.9157 O   0  0  0  0  0  0  0  0  0  0  0  0
    0.5316    1.3921    1.2325 C   0  0  0  0  0  0  0  0  0  0  0  0
    0.3502    2.7352    0.9331 C   0  0  0  0  0  0  0  0  0  0  0  0
    0.4834    3.6912    1.9230 C   0  0  0  0  0  0  0  0  0  0  0  0
    0.7466    3.3273    3.2287 C   0  0  0  0  0  0  0  0  0  0  0  0
    0.9446    1.9915    3.5344 C   0  0  0  0  0  0  0  0  0  0  0  0
    0.8590    1.0201    2.5363 C   0  0  0  0  0  0  0  0  0  0  0  0
 10  9  1  0
  1 10  1  0
  2  1  1  0
  3  2  2  0
  4  3  1  0
 11  4  1  0
 12 11  2  0
 13 11  1  0
 14 13  2  0
 15 14  1  0
 16 15  2  0
 17 16  1  0
 18 17  2  0
 18 13  1  0
  5  4  2  0
  6  5  1  0
  7  5  1  0
  7  1  2  0
  6  8  1  0
M  END
> <structure>
ox3_orig_f8

> <pose>
0

> <is_reference>
1

> <rmsd_to_reference_A>
0.000

> <vina_score>


> <minimizedAffinity>
-4.64480

> <minimizedRMSD>
1.23639

> <CNNscore>
0.7854940295

> <CNNaffinity>
3.5472962856

> <CNN_VS>
2.7863800526

> <CNNaffinity_variance>
0.7468976378

$$$$
ox3_orig_f8_pose1


 18 19  0  0  0  0  0  0  0  0999 V2000
   -0.1863    0.6884    0.2977 C   0  0  0  0  0  0  0  0  0  0  0  0
   -1.3491    0.1292    0.8302 C   0  0  0  0  0  0  0  0  0  0  0  0
   -1.5375   -1.2432    0.7955 C   0  0  0  0  0  0  0  0  0  0  0  0
   -0.5704   -2.0734    0.2365 C   0  0  0  0  0  0  0  0  0  0  0  0
    0.5825   -1.5032   -0.3011 C   0  0  0  0  0  0  0  0  0  0  0  0
    1.5238   -2.3062   -0.8732 O   0  0  0  0  0  0  0  0  0  0  0  0
    0.7629   -0.1256   -0.2664 C   0  0  0  0  0  0  0  0  0  0  0  0
    1.3977   -3.2344   -0.8942 H   0  0  0  0  0  0  0  0  0  0  0  0
    0.2553    2.7259    1.5450 C   0  0  0  0  0  0  0  0  0  0  0  0
    0.0509    2.0423    0.3084 O   0  0  0  0  0  0  0  0  0  0  0  0
   -0.7650   -3.5620    0.1836 C   0  0  0  0  0  0  0  0  0  0  0  0
   -0.5647   -4.2009    1.1892 O   0  0  0  0  0  0  0  0  0  0  0  0
   -1.1554   -4.2721   -1.0590 C   0  0  0  0  0  0  0  0  0  0  0  0
   -0.7563   -3.8194   -2.3097 C   0  0  0  0  0  0  0  0  0  0  0  0
   -1.1660   -4.4820   -3.4512 C   0  0  0  0  0  0  0  0  0  0  0  0
   -1.9304   -5.6295   -3.3692 C   0  0  0  0  0  0  0  0  0  0  0  0
   -2.3466   -6.0805   -2.1284 C   0  0  0  0  0  0  0  0  0  0  0  0
   -1.9792   -5.3947   -0.9697 C   0  0  0  0  0  0  0  0  0  0  0  0
 10  9  1  0
  1 10  1  0
  2  1  1  0
  3  2  2  0
  4  3  1  0
 11  4  1  0
 12 11  2  0
 13 11  1  0
 14 13  2  0
 15 14  1  0
 16 15  2  0
 17 16  1  0
 18 17  2  0
 18 13  1  0
  5  4  2  0
  6  5  1  0
  7  5  1  0
  7  1  2  0
  6  8  1  0
M  END
> <structure>
ox3_orig_f8

> <pose>
1

> <is_reference>
0

> <rmsd_to_reference_A>
6.142

> <vina_score>
-7.0

> <minimizedAffinity>
-7.22742

> <minimizedRMSD>
0.04044

> <CNNscore>
0.7816466689

> <CNNaffinity>
4.2610244751

> <CNN_VS>
3.3306155205

> <CNNaffinity_variance>
0.1340219080

$$$$
ox3_orig_f8_pose2


 18 19  0  0  0  0  0  0  0  0999 V2000
   -1.8882   -5.8662   -3.4466 C   0  0  0  0  0  0  0  0  0  0  0  0
   -0.9701   -4.8144   -3.4805 C   0  0  0  0  0  0  0  0  0  0  0  0
   -0.6664   -4.1216   -2.3192 C   0  0  0  0  0  0  0  0  0  0  0  0
   -1.2666   -4.4698   -1.1128 C   0  0  0  0  0  0  0  0  0  0  0  0
   -2.1894   -5.5156   -1.0929 C   0  0  0  0  0  0  0  0  0  0  0  0
   -2.8008   -5.8466    0.0794 O   0  0  0  0  0  0  0  0  0  0  0  0
   -2.4909   -6.2024   -2.2622 C   0  0  0  0  0  0  0  0  0  0  0  0
   -2.5929   -5.3793    0.8645 H   0  0  0  0  0  0  0  0  0  0  0  0
   -1.4801   -6.4207   -5.7757 C   0  0  0  0  0  0  0  0  0  0  0  0
   -2.2220   -6.5866   -4.5674 O   0  0  0  0  0  0  0  0  0  0  0  0
   -0.9547   -3.7212    0.1517 C   0  0  0  0  0  0  0  0  0  0  0  0
   -1.0059   -4.3224    1.1986 O   0  0  0  0  0  0  0  0  0  0  0  0
   -0.6244   -2.2747    0.1631 C   0  0  0  0  0  0  0  0  0  0  0  0
   -1.4562   -1.3459    0.7730 C   0  0  0  0  0  0  0  0  0  0  0  0
   -1.1407   -0.0008    0.7348 C   0  0  0  0  0  0  0  0  0  0  0  0
    0.0266    0.4371    0.1392 C   0  0  0  0  0  0  0  0  0  0  0  0
    0.8551   -0.4805   -0.4843 C   0  0  0  0  0  0  0  0  0  0  0  0
    0.5244   -1.8360   -0.4946 C   0  0  0  0  0  0  0  0  0  0  0  0
 10  9  1  0
  1 10  1  0
  2  1  1  0
  3  2  2  0
  4  3  1  0
 11  4  1  0
 12 11  2  0
 13 11  1  0
 14 13  2  0
 15 14  1  0
 16 15  2  0
 17 16  1  0
 18 17  2  0
 18 13  1  0
  5  4  2  0
  6  5  1  0
  7  5  1  0
  7  1  2  0
  6  8  1  0
M  END
> <structure>
ox3_orig_f8

> <pose>
2

> <is_reference>
0

> <rmsd_to_reference_A>
4.365

> <vina_score>
-6.0

> <minimizedAffinity>
-6.09083

> <minimizedRMSD>
0.16513

> <CNNscore>
0.6450163722

> <CNNaffinity>
4.1909785271

> <CNN_VS>
2.7032496929

> <CNNaffinity_variance>
0.2514939606

$$$$
ox3_orig_f8_pose3


 18 19  0  0  0  0  0  0  0  0999 V2000
   -0.3151   -2.9079   -0.3202 C   0  0  0  0  0  0  0  0  0  0  0  0
    0.8121   -2.2615   -0.8312 C   0  0  0  0  0  0  0  0  0  0  0  0
    0.9664   -0.8959   -0.6557 C   0  0  0  0  0  0  0  0  0  0  0  0
    0.0059   -0.1592    0.0306 C   0  0  0  0  0  0  0  0  0  0  0  0
   -1.1213   -0.8135    0.5276 C   0  0  0  0  0  0  0  0  0  0  0  0
   -2.0797   -0.0975    1.1808 O   0  0  0  0  0  0  0  0  0  0  0  0
   -1.2705   -2.1830    0.3460 C   0  0  0  0  0  0  0  0  0  0  0  0
   -1.9744    0.8258    1.3007 H   0  0  0  0  0  0  0  0  0  0  0  0
   -1.0868   -4.7777   -1.6639 C   0  0  0  0  0  0  0  0  0  0  0  0
   -0.5153   -4.2593   -0.4628 O   0  0  0  0  0  0  0  0  0  0  0  0
    0.1546    1.3233    0.2199 C   0  0  0  0  0  0  0  0  0  0  0  0
    0.1961    2.0235   -0.7643 O   0  0  0  0  0  0  0  0  0  0  0  0
    0.2890    1.9483    1.5585 C   0  0  0  0  0  0  0  0  0  0  0  0
    0.9778    1.3191    2.5861 C   0  0  0  0  0  0  0  0  0  0  0  0
    1.0549    1.9105    3.8341 C   0  0  0  0  0  0  0  0  0  0  0  0
    0.4983    3.1528    4.0648 C   0  0  0  0  0  0  0  0  0  0  0  0
   -0.2029    3.7812    3.0501 C   0  0  0  0  0  0  0  0  0  0  0  0
   -0.3292    3.1755    1.8005 C   0  0  0  0  0  0  0  0  0  0  0  0
 10  9  1  0
  1 10  1  0
  2  1  1  0
  3  2  2  0
  4  3  1  0
 11  4  1  0
 12 11  2  0
 13 11  1  0
 14 13  2  0
 15 14  1  0
 16 15  2  0
 17 16  1  0
 18 17  2  0
 18 13  1  0
  5  4  2  0
  6  5  1  0
  7  5  1  0
  7  1  2  0
  6  8  1  0
M  END
> <structure>
ox3_orig_f8

> <pose>
3

> <is_reference>
0

> <rmsd_to_reference_A>
2.629

> <vina_score>
-5.2

> <minimizedAffinity>
-5.35075

> <minimizedRMSD>
0.24217

> <CNNscore>
0.7616328597

> <CNNaffinity>
4.1285939217

> <CNN_VS>
3.1444728374

> <CNNaffinity_variance>
0.4895092547

$$$$
ox3_orig_f8_pose4


 18 19  0  0  0  0  0  0  0  0999 V2000
   -7.4541    4.1024   -0.0302 C   0  0  0  0  0  0  0  0  0  0  0  0
   -7.6632    3.0412    0.8531 C   0  0  0  0  0  0  0  0  0  0  0  0
   -8.3843    1.9309    0.4452 C   0  0  0  0  0  0  0  0  0  0  0  0
   -8.9026    1.8618   -0.8442 C   0  0  0  0  0  0  0  0  0  0  0  0
   -8.6965    2.9308   -1.7153 C   0  0  0  0  0  0  0  0  0  0  0  0
   -9.2215    2.8823   -2.9723 O   0  0  0  0  0  0  0  0  0  0  0  0
   -7.9744    4.0420   -1.2984 C   0  0  0  0  0  0  0  0  0  0  0  0
   -9.7078    2.1303   -3.2482 H   0  0  0  0  0  0  0  0  0  0  0  0
   -7.0261    5.8965    1.5492 C   0  0  0  0  0  0  0  0  0  0  0  0
   -6.7439    5.2239    0.3218 O   0  0  0  0  0  0  0  0  0  0  0  0
   -9.6959    0.6683   -1.2965 C   0  0  0  0  0  0  0  0  0  0  0  0
  -10.8426    0.8404   -1.6368 O   0  0  0  0  0  0  0  0  0  0  0  0
   -9.1357   -0.7054   -1.3057 C   0  0  0  0  0  0  0  0  0  0  0  0
   -8.9378   -1.4157   -0.1287 C   0  0  0  0  0  0  0  0  0  0  0  0
   -8.3810   -2.6807   -0.1668 C   0  0  0  0  0  0  0  0  0  0  0  0
   -8.0611   -3.2782   -1.3701 C   0  0  0  0  0  0  0  0  0  0  0  0
   -8.2411   -2.5723   -2.5470 C   0  0  0  0  0  0  0  0  0  0  0  0
   -8.7582   -1.2775   -2.5205 C   0  0  0  0  0  0  0  0  0  0  0  0
 10  9  1  0
  1 10  1  0
  2  1  1  0
  3  2  2  0
  4  3  1  0
 11  4  1  0
 12 11  2  0
 13 11  1  0
 14 13  2  0
 15 14  1  0
 16 15  2  0
 17 16  1  0
 18 17  2  0
 18 13  1  0
  5  4  2  0
  6  5  1  0
  7  5  1  0
  7  1  2  0
  6  8  1  0
M  END
> <structure>
ox3_orig_f8

> <pose>
4

> <is_reference>
0

> <rmsd_to_reference_A>
10.563

> <vina_score>
-4.6

> <minimizedAffinity>
-4.35230

> <minimizedRMSD>
0.14804

> <CNNscore>
0.3234739006

> <CNNaffinity>
2.9739997387

> <CNN_VS>
0.9620112777

> <CNNaffinity_variance>
0.6852518916

$$$$
ox3_orig_f8_pose5


 18 19  0  0  0  0  0  0  0  0999 V2000
   -6.9660   -6.4075    0.2311 C   0  0  0  0  0  0  0  0  0  0  0  0
   -7.0349   -6.2873   -1.1586 C   0  0  0  0  0  0  0  0  0  0  0  0
   -5.9661   -6.6911   -1.9419 C   0  0  0  0  0  0  0  0  0  0  0  0
   -4.8211   -7.2212   -1.3552 C   0  0  0  0  0  0  0  0  0  0  0  0
   -4.7593   -7.3276    0.0339 C   0  0  0  0  0  0  0  0  0  0  0  0
   -3.6328   -7.8220    0.6194 O   0  0  0  0  0  0  0  0  0  0  0  0
   -5.8341   -6.9169    0.8139 C   0  0  0  0  0  0  0  0  0  0  0  0
   -2.9113   -8.0974    0.0888 H   0  0  0  0  0  0  0  0  0  0  0  0
   -7.7231   -5.5088    2.3570 C   0  0  0  0  0  0  0  0  0  0  0  0
   -7.9977   -6.0250    1.0536 O   0  0  0  0  0  0  0  0  0  0  0  0
   -3.6509   -7.6543   -2.1919 C   0  0  0  0  0  0  0  0  0  0  0  0
   -3.4781   -8.8378   -2.3642 O   0  0  0  0  0  0  0  0  0  0  0  0
   -2.6886   -6.6887   -2.7780 C   0  0  0  0  0  0  0  0  0  0  0  0
   -1.9674   -5.8098   -1.9818 C   0  0  0  0  0  0  0  0  0  0  0  0
   -1.1049   -4.8974   -2.5604 C   0  0  0  0  0  0  0  0  0  0  0  0
   -0.9056   -4.8780   -3.9271 C   0  0  0  0  0  0  0  0  0  0  0  0
   -1.6320   -5.7398   -4.7309 C   0  0  0  0  0  0  0  0  0  0  0  0
   -2.5407   -6.6350   -4.1644 C   0  0  0  0  0  0  0  0  0  0  0  0
 10  9  1  0
  1 10  1  0
  2  1  1  0
  3  2  2  0
  4  3  1  0
 11  4  1  0
 12 11  2  0
 13 11  1  0
 14 13  2  0
 15 14  1  0
 16 15  2  0
 17 16  1  0
 18 17  2  0
 18 13  1  0
  5  4  2  0
  6  5  1  0
  7  5  1  0
  7  1  2  0
  6  8  1  0
M  END
> <structure>
ox3_orig_f8

> <pose>
5

> <is_reference>
0

> <rmsd_to_reference_A>
7.950

> <vina_score>
-4.6

> <minimizedAffinity>
-4.18270

> <minimizedRMSD>
0.15059

> <CNNscore>
0.1448182762

> <CNNaffinity>
2.8544547558

> <CNN_VS>
0.4133772254

> <CNNaffinity_variance>
0.7151219845

$$$$
ox3_orig_f8_pose6


 18 19  0  0  0  0  0  0  0  0999 V2000
   -2.4032    3.8108    7.8295 C   0  0  0  0  0  0  0  0  0  0  0  0
   -1.6435    4.5877    8.7059 C   0  0  0  0  0  0  0  0  0  0  0  0
   -0.2828    4.7459    8.4918 C   0  0  0  0  0  0  0  0  0  0  0  0
    0.3344    4.1370    7.4028 C   0  0  0  0  0  0  0  0  0  0  0  0
   -0.4325    3.3549    6.5392 C   0  0  0  0  0  0  0  0  0  0  0  0
    0.1680    2.7355    5.4847 O   0  0  0  0  0  0  0  0  0  0  0  0
   -1.7954    3.1995    6.7633 C   0  0  0  0  0  0  0  0  0  0  0  0
    1.0872    2.8441    5.3390 H   0  0  0  0  0  0  0  0  0  0  0  0
   -4.4012    2.4996    7.4007 C   0  0  0  0  0  0  0  0  0  0  0  0
   -3.7542    3.6243    7.9953 O   0  0  0  0  0  0  0  0  0  0  0  0
    1.8097    4.2913    7.1628 C   0  0  0  0  0  0  0  0  0  0  0  0
    2.5145    3.3199    7.2999 O   0  0  0  0  0  0  0  0  0  0  0  0
    2.4278    5.5910    6.8036 C   0  0  0  0  0  0  0  0  0  0  0  0
    3.6671    5.9673    7.3040 C   0  0  0  0  0  0  0  0  0  0  0  0
    4.2017    7.2011    6.9787 C   0  0  0  0  0  0  0  0  0  0  0  0
    3.5413    8.0538    6.1172 C   0  0  0  0  0  0  0  0  0  0  0  0
    2.2980    7.6945    5.6258 C   0  0  0  0  0  0  0  0  0  0  0  0
    1.7262    6.4726    5.9818 C   0  0  0  0  0  0  0  0  0  0  0  0
 10  9  1  0
  1 10  1  0
  2  1  1  0
  3  2  2  0
  4  3  1  0
 11  4  1  0
 12 11  2  0
 13 11  1  0
 14 13  2  0
 15 14  1  0
 16 15  2  0
 17 16  1  0
 18 17  2  0
 18 13  1  0
  5  4  2  0
  6  5  1  0
  7  5  1  0
  7  1  2  0
  6  8  1  0
M  END
> <structure>
ox3_orig_f8

> <pose>
6

> <is_reference>
0

> <rmsd_to_reference_A>
9.269

> <vina_score>
-4.5

> <minimizedAffinity>
-4.08235

> <minimizedRMSD>
0.09038

> <CNNscore>
0.5267683268

> <CNNaffinity>
3.0907056332

> <CNN_VS>
1.6280858517

> <CNNaffinity_variance>
0.7093142867

$$$$
ox3_orig_f8_pose7


 18 19  0  0  0  0  0  0  0  0999 V2000
   -7.5216    4.1722   -0.1247 C   0  0  0  0  0  0  0  0  0  0  0  0
   -7.9933    3.9936   -1.4269 C   0  0  0  0  0  0  0  0  0  0  0  0
   -8.7292    2.8649   -1.7492 C   0  0  0  0  0  0  0  0  0  0  0  0
   -9.0087    1.9052   -0.7813 C   0  0  0  0  0  0  0  0  0  0  0  0
   -8.5240    2.0886    0.5139 C   0  0  0  0  0  0  0  0  0  0  0  0
   -8.7724    1.1418    1.4628 O   0  0  0  0  0  0  0  0  0  0  0  0
   -7.7840    3.2214    0.8282 C   0  0  0  0  0  0  0  0  0  0  0  0
   -9.2721    0.3798    1.2447 H   0  0  0  0  0  0  0  0  0  0  0  0
   -7.0223    5.8957    1.5129 C   0  0  0  0  0  0  0  0  0  0  0  0
   -6.7898    5.2731    0.2491 O   0  0  0  0  0  0  0  0  0  0  0  0
   -9.7974    0.6716   -1.1190 C   0  0  0  0  0  0  0  0  0  0  0  0
  -10.9762    0.6586   -0.8564 O   0  0  0  0  0  0  0  0  0  0  0  0
   -9.1759   -0.5320   -1.7233 C   0  0  0  0  0  0  0  0  0  0  0  0
   -9.0003   -0.6455   -3.0953 C   0  0  0  0  0  0  0  0  0  0  0  0
   -8.4509   -1.7958   -3.6326 C   0  0  0  0  0  0  0  0  0  0  0  0
   -8.0229   -2.8235   -2.8161 C   0  0  0  0  0  0  0  0  0  0  0  0
   -8.2077   -2.7269   -1.4480 C   0  0  0  0  0  0  0  0  0  0  0  0
   -8.8034   -1.5918   -0.8966 C   0  0  0  0  0  0  0  0  0  0  0  0
 10  9  1  0
  1 10  1  0
  2  1  1  0
  3  2  2  0
  4  3  1  0
 11  4  1  0
 12 11  2  0
 13 11  1  0
 14 13  2  0
 15 14  1  0
 16 15  2  0
 17 16  1  0
 18 17  2  0
 18 13  1  0
  5  4  2  0
  6  5  1  0
  7  5  1  0
  7  1  2  0
  6  8  1  0
M  END
> <structure>
ox3_orig_f8

> <pose>
7

> <is_reference>
0

> <rmsd_to_reference_A>
10.662

> <vina_score>
-4.5

> <minimizedAffinity>
-4.12100

> <minimizedRMSD>
0.09960

> <CNNscore>
0.3003074527

> <CNNaffinity>
3.0634109974

> <CNN_VS>
0.9199651480

> <CNNaffinity_variance>
0.5390134454

$$$$
ox3_orig_f8_pose8


 18 19  0  0  0  0  0  0  0  0999 V2000
   -8.4739   -2.3456    0.0916 C   0  0  0  0  0  0  0  0  0  0  0  0
   -8.6488   -1.3145   -0.8339 C   0  0  0  0  0  0  0  0  0  0  0  0
   -8.5271   -1.5730   -2.1899 C   0  0  0  0  0  0  0  0  0  0  0  0
   -8.2356   -2.8569   -2.6406 C   0  0  0  0  0  0  0  0  0  0  0  0
   -8.0539   -3.8764   -1.7067 C   0  0  0  0  0  0  0  0  0  0  0  0
   -7.7439   -5.1328   -2.1380 O   0  0  0  0  0  0  0  0  0  0  0  0
   -8.1737   -3.6097   -0.3482 C   0  0  0  0  0  0  0  0  0  0  0  0
   -7.6644   -5.3069   -3.0552 H   0  0  0  0  0  0  0  0  0  0  0  0
   -8.6125   -3.2602    2.3372 C   0  0  0  0  0  0  0  0  0  0  0  0
   -8.5864   -2.1451    1.4460 O   0  0  0  0  0  0  0  0  0  0  0  0
   -8.0914   -3.1488   -4.1077 C   0  0  0  0  0  0  0  0  0  0  0  0
   -8.9141   -3.8614   -4.6313 O   0  0  0  0  0  0  0  0  0  0  0  0
   -6.9630   -2.6278   -4.9174 C   0  0  0  0  0  0  0  0  0  0  0  0
   -7.0973   -1.4918   -5.7029 C   0  0  0  0  0  0  0  0  0  0  0  0
   -6.0387   -1.0515   -6.4751 C   0  0  0  0  0  0  0  0  0  0  0  0
   -4.8190   -1.6987   -6.4397 C   0  0  0  0  0  0  0  0  0  0  0  0
   -4.6790   -2.8424   -5.6720 C   0  0  0  0  0  0  0  0  0  0  0  0
   -5.7543   -3.3243   -4.9241 C   0  0  0  0  0  0  0  0  0  0  0  0
 10  9  1  0
  1 10  1  0
  2  1  1  0
  3  2  2  0
  4  3  1  0
 11  4  1  0
 12 11  2  0
 13 11  1  0
 14 13  2  0
 15 14  1  0
 16 15  2  0
 17 16  1  0
 18 17  2  0
 18 13  1  0
  5  4  2  0
  6  5  1  0
  7  5  1  0
  7  1  2  0
  6  8  1  0
M  END
> <structure>
ox3_orig_f8

> <pose>
8

> <is_reference>
0

> <rmsd_to_reference_A>
9.159

> <vina_score>
-4.5

> <minimizedAffinity>
-4.07719

> <minimizedRMSD>
0.24616

> <CNNscore>
0.4021421671

> <CNNaffinity>
3.1365997791

> <CNN_VS>
1.2613589764

> <CNNaffinity_variance>
0.4222072065

$$$$
ox3_orig_f8_pose9


 18 19  0  0  0  0  0  0  0  0999 V2000
   -0.9303   -4.5894   -2.0516 C   0  0  0  0  0  0  0  0  0  0  0  0
   -0.9566   -4.6173   -3.4476 C   0  0  0  0  0  0  0  0  0  0  0  0
   -1.7801   -5.5149   -4.1081 C   0  0  0  0  0  0  0  0  0  0  0  0
   -2.5874   -6.3905   -3.3896 C   0  0  0  0  0  0  0  0  0  0  0  0
   -2.5460   -6.3610   -1.9956 C   0  0  0  0  0  0  0  0  0  0  0  0
   -3.3161   -7.2324   -1.2830 O   0  0  0  0  0  0  0  0  0  0  0  0
   -1.7164   -5.4595   -1.3411 C   0  0  0  0  0  0  0  0  0  0  0  0
   -3.8739   -7.8383   -1.7300 H   0  0  0  0  0  0  0  0  0  0  0  0
   -0.5402   -3.2576   -0.0584 C   0  0  0  0  0  0  0  0  0  0  0  0
   -0.1355   -3.7180   -1.3480 O   0  0  0  0  0  0  0  0  0  0  0  0
   -3.4783   -7.3762   -4.0918 C   0  0  0  0  0  0  0  0  0  0  0  0
   -4.6411   -7.0880   -4.2447 O   0  0  0  0  0  0  0  0  0  0  0  0
   -2.9901   -8.6951   -4.5669 C   0  0  0  0  0  0  0  0  0  0  0  0
   -3.2005   -9.8540   -3.8319 C   0  0  0  0  0  0  0  0  0  0  0  0
   -2.7030  -11.0617   -4.2833 C   0  0  0  0  0  0  0  0  0  0  0  0
   -2.0368  -11.1475   -5.4896 C   0  0  0  0  0  0  0  0  0  0  0  0
   -1.8084   -9.9948   -6.2230 C   0  0  0  0  0  0  0  0  0  0  0  0
   -2.2644   -8.7612   -5.7556 C   0  0  0  0  0  0  0  0  0  0  0  0
 10  9  1  0
  1 10  1  0
  2  1  1  0
  3  2  2  0
  4  3  1  0
 11  4  1  0
 12 11  2  0
 13 11  1  0
 14 13  2  0
 15 14  1  0
 16 15  2  0
 17 16  1  0
 18 17  2  0
 18 13  1  0
  5  4  2  0
  6  5  1  0
  7  5  1  0
  7  1  2  0
  6  8  1  0
M  END
> <structure>
ox3_orig_f8

> <pose>
9

> <is_reference>
0

> <rmsd_to_reference_A>
9.515

> <vina_score>
-4.4

> <minimizedAffinity>
-4.07615

> <minimizedRMSD>
0.07942

> <CNNscore>
0.2559833825

> <CNNaffinity>
3.4185802937

> <CNN_VS>
0.8750997186

> <CNNaffinity_variance>
0.5386106968

$$$$
