bg33_1_dockpose1
     RDKit          3D

 20 20  0  0  0  0  0  0  0  0999 V2000
    0.8300   -2.2940   10.2760 C   0  0  0  0  0  0  0  0  0  0  0  0
    2.0450   -1.3940   10.3190 C   0  0  0  0  0  0  0  0  0  0  0  0
    2.2730   -0.8030    9.0160 C   0  0  0  0  0  0  0  0  0  0  0  0
    2.3820   -1.9400    8.1740 C   0  0  0  0  0  0  0  0  0  0  0  0
    3.6980   -2.2270    7.7790 C   0  0  2  0  0  0  0  0  0  0  0  0
    4.2310   -1.5520    6.5610 C   0  0  0  0  0  0  0  0  0  0  0  0
    5.2530   -0.6170    6.8350 C   0  0  0  0  0  0  0  0  0  0  0  0
    4.0300   -3.4420    7.8340 O   0  0  0  0  0  0  0  0  0  0  0  0
    4.5800   -3.7500    8.9590 C   0  0  0  0  0  0  0  0  0  0  0  0
    5.4130   -3.0290    9.4380 O   0  0  0  0  0  0  0  0  0  0  0  0
    4.1860   -4.9360    9.6090 C   0  0  0  0  0  0  0  0  0  0  0  0
    3.4660   -4.8320   10.6350 C   0  0  0  0  0  0  0  0  0  0  0  0
    3.1300   -5.8820   11.4610 C   0  0  0  0  0  0  0  0  0  0  0  0
    1.8800   -6.3640   11.5080 C   0  0  0  0  0  0  0  0  0  0  0  0
    1.5310   -7.3960   12.3160 C   0  0  0  0  0  0  0  0  0  0  0  0
    2.5210   -7.9610   13.0650 C   0  0  0  0  0  0  0  0  0  0  0  0
    2.2540   -8.9560   13.8770 O   0  0  0  0  0  0  0  0  0  0  0  0
    2.8670   -8.8490   15.1160 C   0  0  0  0  0  0  0  0  0  0  0  0
    3.7670   -7.5330   13.0470 C   0  0  0  0  0  0  0  0  0  0  0  0
    4.0680   -6.4730   12.2630 C   0  0  0  0  0  0  0  0  0  0  0  0
  2  1  1  0
  3  2  1  0
  4  3  1  0
  5  4  1  6
  6  5  1  0
  7  6  1  0
  8  5  1  0
  9  8  1  0
 10  9  2  0
 11  9  1  0
 12 11  2  3
 13 12  1  0
 14 13  1  0
 15 14  2  0
 16 15  1  0
 17 16  1  0
 18 17  1  0
 19 16  2  0
 20 13  2  0
 20 19  1  0
M  END
$$$$
