shuffle_control_dockpose1
     RDKit          3D

 20 20  0  0  0  0  0  0  0  0999 V2000
    2.9400    5.8030    0.2270 C   0  0  0  0  0  0  0  0  0  0  0  0
    1.7530    6.1990   -0.6060 C   0  0  0  0  0  0  0  0  0  0  0  0
    0.7930    7.0710    0.1600 C   0  0  0  0  0  0  0  0  0  0  0  0
   -0.6310    6.6800   -0.0690 C   0  0  0  0  0  0  0  0  0  0  0  0
   -0.8720    5.1880   -0.0210 C   0  0  2  0  0  0  0  0  0  0  0  0
   -1.9780    4.8330   -1.0030 C   0  0  0  0  0  0  0  0  0  0  0  0
   -2.5110    3.4470   -0.8780 C   0  0  0  0  0  0  0  0  0  0  0  0
   -1.2600    4.8370    1.2910 O   0  0  0  0  0  0  0  0  0  0  0  0
   -0.4340    4.1370    2.0760 C   0  0  0  0  0  0  0  0  0  0  0  0
   -0.4400    4.2640    3.2710 O   0  0  0  0  0  0  0  0  0  0  0  0
    0.4620    3.2180    1.3350 C   0  0  0  0  0  0  0  0  0  0  0  0
    1.5400    2.6920    1.9260 C   0  0  0  0  0  0  0  0  0  0  0  0
    2.4980    1.7890    1.2450 C   0  0  0  0  0  0  0  0  0  0  0  0
    3.7090    2.2230    0.7720 C   0  0  0  0  0  0  0  0  0  0  0  0
    4.5800    1.3410    0.1400 C   0  0  0  0  0  0  0  0  0  0  0  0
    4.2390    0.0240   -0.0220 C   0  0  0  0  0  0  0  0  0  0  0  0
    5.0510   -0.8910   -0.6260 O   0  0  0  0  0  0  0  0  0  0  0  0
    4.5000   -1.8620   -1.4950 C   0  0  0  0  0  0  0  0  0  0  0  0
    3.0260   -0.4160    0.4480 C   0  0  0  0  0  0  0  0  0  0  0  0
    2.1540    0.4640    1.0780 C   0  0  0  0  0  0  0  0  0  0  0  0
  2  1  1  0
  3  2  1  0
  4  3  1  0
  5  4  1  1
  6  5  1  0
  7  6  1  0
  8  5  1  0
  9  8  1  0
 10  9  2  0
 11  9  1  0
 12 11  2  3
 13 12  1  0
 14 13  1  0
 15 14  2  0
 16 15  1  0
 17 16  1  0
 18 17  1  0
 19 16  2  0
 20 19  1  0
 20 13  2  0
M  END
