shuffle_control_esm0_pose0_reference
     RDKit          3D

 20 20  0  0  0  0  0  0  0  0999 V2000
   -0.3850   11.1240    0.0630 C   0  0  0  0  0  0  0  0  0  0  0  0
    0.8670   10.4990    0.5710 C   0  0  0  0  0  0  0  0  0  0  0  0
    1.3140   10.8790    1.9500 C   0  0  0  0  0  0  0  0  0  0  0  0
    0.2780   11.4060    2.8820 C   0  0  0  0  0  0  0  0  0  0  0  0
    0.7340   11.5700    4.2950 C   0  0  1  0  0  0  0  0  0  0  0  0
   -0.4970   11.7620    5.1620 C   0  0  0  0  0  0  0  0  0  0  0  0
   -0.2510   12.1130    6.6010 C   0  0  0  0  0  0  0  0  0  0  0  0
    1.4790   10.4100    4.6520 O   0  0  0  0  0  0  0  0  0  0  0  0
    2.6810   10.4780    5.2760 C   0  0  0  0  0  0  0  0  0  0  0  0
    3.1300   11.5110    5.6600 O   0  0  0  0  0  0  0  0  0  0  0  0
    3.3750    9.1620    5.4220 C   0  0  0  0  0  0  0  0  0  0  0  0
    4.0890    8.6580    4.4310 C   0  0  0  0  0  0  0  0  0  0  0  0
    4.6990    7.2950    4.4660 C   0  0  0  0  0  0  0  0  0  0  0  0
    4.4910    6.4590    3.3990 C   0  0  0  0  0  0  0  0  0  0  0  0
    5.0100    5.1720    3.3910 C   0  0  0  0  0  0  0  0  0  0  0  0
    5.7580    4.7130    4.4590 C   0  0  0  0  0  0  0  0  0  0  0  0
    6.2700    3.4650    4.4960 O   0  0  0  0  0  0  0  0  0  0  0  0
    5.9660    2.5500    3.4450 C   0  0  0  0  0  0  0  0  0  0  0  0
    5.9770    5.5660    5.5410 C   0  0  0  0  0  0  0  0  0  0  0  0
    5.4540    6.8630    5.5400 C   0  0  0  0  0  0  0  0  0  0  0  0
  2  1  1  0
  3  2  1  0
  4  3  1  0
  5  4  1  6
  6  5  1  0
  7  6  1  0
  8  5  1  0
  9  8  1  0
 10  9  2  0
 11  9  1  0
 12 11  2  3
 13 12  1  0
 14 13  1  0
 15 14  2  0
 16 15  1  0
 17 16  1  0
 18 17  1  0
 19 16  2  0
 20 13  2  0
 20 19  1  0
M  END
>  <structure>  (1) 
shuffle_control_esm0

>  <pose>  (1) 
0

>  <is_reference>  (1) 
1

>  <rmsd_to_reference_A>  (1) 
0.000

>  <vina_score>  (1) 


$$$$
