bgox31_2_ligand
 OpenBabel10092621233D

 18 19  0  0  0  0  0  0  0  0999 V2000
   -1.8620    4.8310   -4.8950 C   0  0  0  0  0  0  0  0  0  0  0  0
   -1.0480    4.6010   -6.0080 C   0  0  0  0  0  3  0  0  0  0  0  0
   -0.1140    5.5330   -6.3840 C   0  0  0  0  0  3  0  0  0  0  0  0
    0.0010    6.6760   -5.6420 C   0  0  0  0  0  0  0  0  0  0  0  0
   -0.7670    6.8930   -4.5110 C   0  0  0  0  0  0  0  0  0  0  0  0
   -1.6880    5.9580   -4.1460 C   0  0  0  0  0  3  0  0  0  0  0  0
   -3.6560    4.2390   -3.5160 C   0  0  0  0  0  1  0  0  0  0  0  0
   -2.7930    3.9230   -4.5810 O   0  0  0  0  0  0  0  0  0  0  0  0
    1.0080    7.6980   -6.0910 C   0  0  0  0  0  0  0  0  0  0  0  0
    0.5960    8.7460   -6.5050 O   0  0  0  0  0  0  0  0  0  0  0  0
    2.4190    7.5030   -5.9250 C   0  0  0  0  0  0  0  0  0  0  0  0
    3.0040    8.0920   -4.8290 C   0  0  0  0  0  3  0  0  0  0  0  0
    4.3670    7.9790   -4.6730 C   0  0  0  0  0  3  0  0  0  0  0  0
    5.0920    7.2740   -5.6040 C   0  0  0  0  0  3  0  0  0  0  0  0
    4.5310    6.7300   -6.6570 C   0  0  0  0  0  3  0  0  0  0  0  0
    3.1640    6.8320   -6.8120 C   0  0  0  0  0  3  0  0  0  0  0  0
   -0.5520    8.0060   -3.7950 O   0  0  0  0  0  0  0  0  0  0  0  0
    0.3730    8.2770   -3.5660 H   0  0  0  0  0  0  0  0  0  0  0  0
  1  8  1  0  0  0  0
  1  6  1  0  0  0  0
  2  1  2  0  0  0  0
  3  2  1  0  0  0  0
  3  4  2  0  0  0  0
  4  5  1  0  0  0  0
  5  6  2  0  0  0  0
  5 17  1  0  0  0  0
  8  7  1  0  0  0  0
  9 11  1  0  0  0  0
  9  4  1  0  0  0  0
 10  9  2  0  0  0  0
 11 12  1  0  0  0  0
 12 13  2  0  0  0  0
 14 13  1  0  0  0  0
 15 14  2  0  0  0  0
 16 15  1  0  0  0  0
 16 11  2  0  0  0  0
 17 18  1  0  0  0  0
M  END
>  <MODEL>
1

>  <REMARK>
 VINA RESULT:      -4.1      0.000      0.000
  Name = bgox31_2_ligand
  5 active torsions:
  status: ('A' for Active; 'I' for Inactive)
    1  A    between atoms: C_1  and  O_2
    2  A    between atoms: O_2  and  C_3
    3  A    between atoms: C_6  and  C_7
    4  A    between atoms: C_7  and  C_9
    5  A    between atoms: C_15  and  O_16
                            x       y       z     vdW  Elec       q    Type
                         _______ _______ _______ _____ _____    ______ ____

>  <TORSDO>
F 4

$$$$
bgox31_2_ligand
 OpenBabel10092621233D

 18 19  0  0  0  0  0  0  0  0999 V2000
   -6.0970    5.2490   -0.8750 C   0  0  0  0  0  0  0  0  0  0  0  0
   -6.2730    5.7600   -2.1650 C   0  0  0  0  0  3  0  0  0  0  0  0
   -5.5410    5.2600   -3.2120 C   0  0  0  0  0  3  0  0  0  0  0  0
   -4.6500    4.2540   -2.9610 C   0  0  0  0  0  0  0  0  0  0  0  0
   -4.5010    3.7080   -1.6970 C   0  0  0  0  0  0  0  0  0  0  0  0
   -5.2370    4.2100   -0.6670 C   0  0  0  0  0  3  0  0  0  0  0  0
   -7.0070    7.1780    0.0830 C   0  0  0  0  0  1  0  0  0  0  0  0
   -6.7940    5.7880    0.1310 O   0  0  0  0  0  0  0  0  0  0  0  0
   -3.8350    3.7430   -4.1160 C   0  0  0  0  0  0  0  0  0  0  0  0
   -4.2020    2.7390   -4.6610 O   0  0  0  0  0  0  0  0  0  0  0  0
   -2.7230    4.4750   -4.6470 C   0  0  0  0  0  0  0  0  0  0  0  0
   -2.0510    3.9060   -5.7040 C   0  0  0  0  0  3  0  0  0  0  0  0
   -0.9390    4.5500   -6.1980 C   0  0  0  0  0  3  0  0  0  0  0  0
   -0.5480    5.7400   -5.6330 C   0  0  0  0  0  3  0  0  0  0  0  0
   -1.1820    6.2690   -4.6150 C   0  0  0  0  0  3  0  0  0  0  0  0
   -2.3030    5.6320   -4.1230 C   0  0  0  0  0  3  0  0  0  0  0  0
   -3.6560    2.6780   -1.5400 O   0  0  0  0  0  0  0  0  0  0  0  0
   -2.7820    2.6790   -2.0070 H   0  0  0  0  0  0  0  0  0  0  0  0
  1  6  1  0  0  0  0
  1  8  1  0  0  0  0
  2  1  2  0  0  0  0
  3  4  2  0  0  0  0
  3  2  1  0  0  0  0
  4  5  1  0  0  0  0
  5 17  1  0  0  0  0
  5  6  2  0  0  0  0
  7  8  1  0  0  0  0
  9  4  1  0  0  0  0
 10  9  2  0  0  0  0
 11 16  1  0  0  0  0
 11  9  1  0  0  0  0
 12 11  2  0  0  0  0
 13 12  1  0  0  0  0
 13 14  2  0  0  0  0
 14 15  1  0  0  0  0
 15 16  2  0  0  0  0
 18 17  1  0  0  0  0
M  END
>  <MODEL>
2

>  <REMARK>
 VINA RESULT:      -4.0      3.896      6.268
  Name = bgox31_2_ligand
  5 active torsions:
  status: ('A' for Active; 'I' for Inactive)
    1  A    between atoms: C_1  and  O_2
    2  A    between atoms: O_2  and  C_3
    3  A    between atoms: C_6  and  C_7
    4  A    between atoms: C_7  and  C_9
    5  A    between atoms: C_15  and  O_16
                            x       y       z     vdW  Elec       q    Type
                         _______ _______ _______ _____ _____    ______ ____

>  <TORSDO>
F 4

$$$$
bgox31_2_ligand
 OpenBabel10092621233D

 18 19  0  0  0  0  0  0  0  0999 V2000
   -4.8850   -3.6790   -6.7870 C   0  0  0  0  0  0  0  0  0  0  0  0
   -4.9600   -5.0400   -7.1020 C   0  0  0  0  0  3  0  0  0  0  0  0
   -5.8430   -5.8540   -6.4380 C   0  0  0  0  0  3  0  0  0  0  0  0
   -6.6420   -5.3010   -5.4770 C   0  0  0  0  0  0  0  0  0  0  0  0
   -6.6090   -3.9460   -5.1900 C   0  0  0  0  0  0  0  0  0  0  0  0
   -5.7310   -3.1480   -5.8590 C   0  0  0  0  0  3  0  0  0  0  0  0
   -3.9070   -1.5700   -7.0410 C   0  0  0  0  0  1  0  0  0  0  0  0
   -3.9820   -2.9220   -7.4220 O   0  0  0  0  0  0  0  0  0  0  0  0
   -7.5780   -6.2160   -4.7400 C   0  0  0  0  0  0  0  0  0  0  0  0
   -8.7570   -6.0380   -4.8730 O   0  0  0  0  0  0  0  0  0  0  0  0
   -7.1100   -7.3470   -3.9930 C   0  0  0  0  0  0  0  0  0  0  0  0
   -6.2840   -7.0880   -2.9240 C   0  0  0  0  0  3  0  0  0  0  0  0
   -5.7630   -8.1530   -2.2240 C   0  0  0  0  0  3  0  0  0  0  0  0
   -6.0960   -9.4310   -2.6050 C   0  0  0  0  0  3  0  0  0  0  0  0
   -6.8690   -9.6720   -3.6350 C   0  0  0  0  0  3  0  0  0  0  0  0
   -7.4010   -8.6080   -4.3340 C   0  0  0  0  0  3  0  0  0  0  0  0
   -7.4690   -3.4630   -4.2820 O   0  0  0  0  0  0  0  0  0  0  0  0
   -8.4090   -3.7770   -4.2730 H   0  0  0  0  0  0  0  0  0  0  0  0
  1  6  1  0  0  0  0
  2  1  2  0  0  0  0
  2  3  1  0  0  0  0
  3  4  2  0  0  0  0
  4  5  1  0  0  0  0
  4  9  1  0  0  0  0
  5 17  1  0  0  0  0
  6  5  2  0  0  0  0
  8  7  1  0  0  0  0
  8  1  1  0  0  0  0
  9 11  1  0  0  0  0
 10  9  2  0  0  0  0
 11 12  1  0  0  0  0
 12 13  2  0  0  0  0
 14 13  1  0  0  0  0
 15 14  2  0  0  0  0
 16 11  2  0  0  0  0
 16 15  1  0  0  0  0
 17 18  1  0  0  0  0
M  END
>  <MODEL>
3

>  <REMARK>
 VINA RESULT:      -3.9     10.837     15.031
  Name = bgox31_2_ligand
  5 active torsions:
  status: ('A' for Active; 'I' for Inactive)
    1  A    between atoms: C_1  and  O_2
    2  A    between atoms: O_2  and  C_3
    3  A    between atoms: C_6  and  C_7
    4  A    between atoms: C_7  and  C_9
    5  A    between atoms: C_15  and  O_16
                            x       y       z     vdW  Elec       q    Type
                         _______ _______ _______ _____ _____    ______ ____

>  <TORSDO>
F 4

$$$$
bgox31_2_ligand
 OpenBabel10092621233D

 18 19  0  0  0  0  0  0  0  0999 V2000
   -3.7220   -5.4350  -10.0260 C   0  0  0  0  0  0  0  0  0  0  0  0
   -2.6650   -5.0230  -10.8440 C   0  0  0  0  0  3  0  0  0  0  0  0
   -1.6810   -5.9110  -11.1990 C   0  0  0  0  0  3  0  0  0  0  0  0
   -1.7680   -7.1970  -10.7400 C   0  0  0  0  0  0  0  0  0  0  0  0
   -2.8350   -7.6260   -9.9690 C   0  0  0  0  0  0  0  0  0  0  0  0
   -3.8070   -6.7360   -9.6270 C   0  0  0  0  0  3  0  0  0  0  0  0
   -4.6660   -4.1610   -8.3060 C   0  0  0  0  0  1  0  0  0  0  0  0
   -4.6420   -4.5330   -9.6630 O   0  0  0  0  0  0  0  0  0  0  0  0
   -0.6630   -8.1440  -11.1130 C   0  0  0  0  0  0  0  0  0  0  0  0
   -0.9280   -9.0510  -11.8520 O   0  0  0  0  0  0  0  0  0  0  0  0
    0.6960   -7.9260  -10.7140 C   0  0  0  0  0  0  0  0  0  0  0  0
    1.6440   -7.9200  -11.7100 C   0  0  0  0  0  3  0  0  0  0  0  0
    2.9670   -7.7770  -11.3570 C   0  0  0  0  0  3  0  0  0  0  0  0
    3.2940   -7.6300  -10.0300 C   0  0  0  0  0  3  0  0  0  0  0  0
    2.3870   -7.6540   -9.0830 C   0  0  0  0  0  3  0  0  0  0  0  0
    1.0600   -7.7870   -9.4330 C   0  0  0  0  0  3  0  0  0  0  0  0
   -2.8870   -8.9180   -9.6120 O   0  0  0  0  0  0  0  0  0  0  0  0
   -3.2570   -9.1730   -8.7290 H   0  0  0  0  0  0  0  0  0  0  0  0
  1  8  1  0  0  0  0
  1  6  1  0  0  0  0
  2  1  2  0  0  0  0
  3  2  1  0  0  0  0
  3  4  2  0  0  0  0
  4  5  1  0  0  0  0
  5  6  2  0  0  0  0
  5 17  1  0  0  0  0
  8  7  1  0  0  0  0
  9  4  1  0  0  0  0
  9 11  1  0  0  0  0
 10  9  2  0  0  0  0
 11 16  1  0  0  0  0
 12 13  1  0  0  0  0
 12 11  2  0  0  0  0
 13 14  2  0  0  0  0
 14 15  1  0  0  0  0
 16 15  2  0  0  0  0
 17 18  1  0  0  0  0
M  END
>  <MODEL>
4

>  <REMARK>
 VINA RESULT:      -3.8     12.866     14.896
  Name = bgox31_2_ligand
  5 active torsions:
  status: ('A' for Active; 'I' for Inactive)
    1  A    between atoms: C_1  and  O_2
    2  A    between atoms: O_2  and  C_3
    3  A    between atoms: C_6  and  C_7
    4  A    between atoms: C_7  and  C_9
    5  A    between atoms: C_15  and  O_16
                            x       y       z     vdW  Elec       q    Type
                         _______ _______ _______ _____ _____    ______ ____

>  <TORSDO>
F 4

$$$$
bgox31_2_ligand
 OpenBabel10092621233D

 18 19  0  0  0  0  0  0  0  0999 V2000
   -5.1440   -4.7500   -6.8520 C   0  0  0  0  0  0  0  0  0  0  0  0
   -4.6860   -4.5140   -8.1520 C   0  0  0  0  0  3  0  0  0  0  0  0
   -4.2380   -3.2680   -8.5100 C   0  0  0  0  0  3  0  0  0  0  0  0
   -4.2430   -2.2780   -7.5670 C   0  0  0  0  0  0  0  0  0  0  0  0
   -4.6500   -2.5130   -6.2640 C   0  0  0  0  0  0  0  0  0  0  0  0
   -5.0890   -3.7550   -5.9200 C   0  0  0  0  0  3  0  0  0  0  0  0
   -6.3450   -6.0810   -5.3510 C   0  0  0  0  0  1  0  0  0  0  0  0
   -5.6160   -5.9640   -6.5480 O   0  0  0  0  0  0  0  0  0  0  0  0
   -3.7790   -0.9130   -7.9890 C   0  0  0  0  0  0  0  0  0  0  0  0
   -4.6100   -0.0660   -8.1630 O   0  0  0  0  0  0  0  0  0  0  0  0
   -2.3880   -0.5710   -8.0700 C   0  0  0  0  0  0  0  0  0  0  0  0
   -2.0860    0.7420   -8.3470 C   0  0  0  0  0  3  0  0  0  0  0  0
   -0.7630    1.0930   -8.4950 C   0  0  0  0  0  3  0  0  0  0  0  0
    0.2060    0.1300   -8.3470 C   0  0  0  0  0  3  0  0  0  0  0  0
   -0.0890   -1.1240   -8.1010 C   0  0  0  0  0  3  0  0  0  0  0  0
   -1.4130   -1.4780   -7.9420 C   0  0  0  0  0  3  0  0  0  0  0  0
   -4.5650   -1.5110   -5.3770 O   0  0  0  0  0  0  0  0  0  0  0  0
   -3.6860   -1.2620   -4.9930 H   0  0  0  0  0  0  0  0  0  0  0  0
  1  8  1  0  0  0  0
  1  6  1  0  0  0  0
  2  1  2  0  0  0  0
  3  2  1  0  0  0  0
  3  4  2  0  0  0  0
  4  5  1  0  0  0  0
  5  6  2  0  0  0  0
  5 17  1  0  0  0  0
  8  7  1  0  0  0  0
  9  4  1  0  0  0  0
 10  9  2  0  0  0  0
 11  9  1  0  0  0  0
 11 16  1  0  0  0  0
 12 11  2  0  0  0  0
 13 12  1  0  0  0  0
 13 14  2  0  0  0  0
 14 15  1  0  0  0  0
 15 16  2  0  0  0  0
 17 18  1  0  0  0  0
M  END
>  <MODEL>
5

>  <REMARK>
 VINA RESULT:      -3.8      7.551     10.001
  Name = bgox31_2_ligand
  5 active torsions:
  status: ('A' for Active; 'I' for Inactive)
    1  A    between atoms: C_1  and  O_2
    2  A    between atoms: O_2  and  C_3
    3  A    between atoms: C_6  and  C_7
    4  A    between atoms: C_7  and  C_9
    5  A    between atoms: C_15  and  O_16
                            x       y       z     vdW  Elec       q    Type
                         _______ _______ _______ _____ _____    ______ ____

>  <TORSDO>
F 4

$$$$
bgox31_2_ligand
 OpenBabel10092621233D

 18 19  0  0  0  0  0  0  0  0999 V2000
   -0.6860    7.5510   -5.0500 C   0  0  0  0  0  0  0  0  0  0  0  0
   -1.9600    8.1020   -4.8760 C   0  0  0  0  0  3  0  0  0  0  0  0
   -3.0450    7.2850   -4.6850 C   0  0  0  0  0  3  0  0  0  0  0  0
   -2.8460    5.9320   -4.6620 C   0  0  0  0  0  0  0  0  0  0  0  0
   -1.5830    5.3780   -4.7860 C   0  0  0  0  0  0  0  0  0  0  0  0
   -0.5130    6.2000   -4.9710 C   0  0  0  0  0  3  0  0  0  0  0  0
    1.2770    7.9690   -6.2510 C   0  0  0  0  0  1  0  0  0  0  0  0
    0.3440    8.3730   -5.2790 O   0  0  0  0  0  0  0  0  0  0  0  0
   -4.0520    5.0540   -4.4840 C   0  0  0  0  0  0  0  0  0  0  0  0
   -4.5020    4.5160   -5.4570 O   0  0  0  0  0  0  0  0  0  0  0  0
   -4.5930    4.7540   -3.1900 C   0  0  0  0  0  0  0  0  0  0  0  0
   -5.6200    5.5540   -2.7450 C   0  0  0  0  0  3  0  0  0  0  0  0
   -6.1200    5.3350   -1.4810 C   0  0  0  0  0  3  0  0  0  0  0  0
   -5.5920    4.3220   -0.7170 C   0  0  0  0  0  3  0  0  0  0  0  0
   -4.6020    3.5740   -1.1410 C   0  0  0  0  0  3  0  0  0  0  0  0
   -4.1040    3.7830   -2.4100 C   0  0  0  0  0  3  0  0  0  0  0  0
   -1.4560    4.0470   -4.6870 O   0  0  0  0  0  0  0  0  0  0  0  0
   -2.2120    3.5010   -4.3520 H   0  0  0  0  0  0  0  0  0  0  0  0
  1  6  2  0  0  0  0
  1  2  1  0  0  0  0
  2  3  2  0  0  0  0
  3  4  1  0  0  0  0
  4  9  1  0  0  0  0
  5 17  1  0  0  0  0
  5  4  2  0  0  0  0
  6  5  1  0  0  0  0
  7  8  1  0  0  0  0
  8  1  1  0  0  0  0
  9 11  1  0  0  0  0
 10  9  2  0  0  0  0
 11 12  2  0  0  0  0
 11 16  1  0  0  0  0
 12 13  1  0  0  0  0
 13 14  2  0  0  0  0
 15 14  1  0  0  0  0
 16 15  2  0  0  0  0
 17 18  1  0  0  0  0
M  END
>  <MODEL>
6

>  <REMARK>
 VINA RESULT:      -3.7      1.992      7.089
  Name = bgox31_2_ligand
  5 active torsions:
  status: ('A' for Active; 'I' for Inactive)
    1  A    between atoms: C_1  and  O_2
    2  A    between atoms: O_2  and  C_3
    3  A    between atoms: C_6  and  C_7
    4  A    between atoms: C_7  and  C_9
    5  A    between atoms: C_15  and  O_16
                            x       y       z     vdW  Elec       q    Type
                         _______ _______ _______ _____ _____    ______ ____

>  <TORSDO>
F 4

$$$$
bgox31_2_ligand
 OpenBabel10092621233D

 18 19  0  0  0  0  0  0  0  0999 V2000
   -4.0320   -9.6180  -10.4030 C   0  0  0  0  0  0  0  0  0  0  0  0
   -3.0180   -8.7070  -10.0930 C   0  0  0  0  0  3  0  0  0  0  0  0
   -3.3110   -7.3770   -9.9300 C   0  0  0  0  0  3  0  0  0  0  0  0
   -4.6100   -6.9750  -10.0700 C   0  0  0  0  0  0  0  0  0  0  0  0
   -5.6290   -7.8750  -10.3310 C   0  0  0  0  0  0  0  0  0  0  0  0
   -5.3260   -9.1940  -10.4860 C   0  0  0  0  0  3  0  0  0  0  0  0
   -3.8980  -11.4150  -11.8950 C   0  0  0  0  0  1  0  0  0  0  0  0
   -3.7060  -10.9010  -10.6000 O   0  0  0  0  0  0  0  0  0  0  0  0
   -4.9050   -5.5090   -9.9200 C   0  0  0  0  0  0  0  0  0  0  0  0
   -5.3650   -4.9300  -10.8640 O   0  0  0  0  0  0  0  0  0  0  0  0
   -4.7660   -4.8280   -8.6660 C   0  0  0  0  0  0  0  0  0  0  0  0
   -5.3330   -5.4280   -7.5660 C   0  0  0  0  0  3  0  0  0  0  0  0
   -5.2760   -4.7710   -6.3570 C   0  0  0  0  0  3  0  0  0  0  0  0
   -4.6440   -3.5530   -6.2860 C   0  0  0  0  0  3  0  0  0  0  0  0
   -4.1210   -2.9780   -7.3420 C   0  0  0  0  0  3  0  0  0  0  0  0
   -4.1680   -3.6360   -8.5530 C   0  0  0  0  0  3  0  0  0  0  0  0
   -6.8880   -7.4170  -10.3890 O   0  0  0  0  0  0  0  0  0  0  0  0
   -7.1360   -6.7310  -11.0590 H   0  0  0  0  0  0  0  0  0  0  0  0
  1  2  1  0  0  0  0
  2  3  2  0  0  0  0
  4  3  1  0  0  0  0
  4  9  1  0  0  0  0
  5  4  2  0  0  0  0
  6  1  2  0  0  0  0
  6  5  1  0  0  0  0
  7  8  1  0  0  0  0
  8  1  1  0  0  0  0
  9 11  1  0  0  0  0
 10  9  2  0  0  0  0
 11 16  2  0  0  0  0
 11 12  1  0  0  0  0
 12 13  2  0  0  0  0
 13 14  1  0  0  0  0
 15 14  2  0  0  0  0
 16 15  1  0  0  0  0
 17  5  1  0  0  0  0
 18 17  1  0  0  0  0
M  END
>  <MODEL>
7

>  <REMARK>
 VINA RESULT:      -3.7     12.617     15.442
  Name = bgox31_2_ligand
  5 active torsions:
  status: ('A' for Active; 'I' for Inactive)
    1  A    between atoms: C_1  and  O_2
    2  A    between atoms: O_2  and  C_3
    3  A    between atoms: C_6  and  C_7
    4  A    between atoms: C_7  and  C_9
    5  A    between atoms: C_15  and  O_16
                            x       y       z     vdW  Elec       q    Type
                         _______ _______ _______ _____ _____    ______ ____

>  <TORSDO>
F 4

$$$$
bgox31_2_ligand
 OpenBabel10092621233D

 18 19  0  0  0  0  0  0  0  0999 V2000
    0.0560   -0.3860   -7.7870 C   0  0  0  0  0  0  0  0  0  0  0  0
    1.0400    0.4330   -7.2240 C   0  0  0  0  0  3  0  0  0  0  0  0
    0.8980    1.7980   -7.2480 C   0  0  0  0  0  3  0  0  0  0  0  0
   -0.2230    2.3260   -7.8260 C   0  0  0  0  0  0  0  0  0  0  0  0
   -1.2250    1.5230   -8.3450 C   0  0  0  0  0  0  0  0  0  0  0  0
   -1.0740    0.1700   -8.3100 C   0  0  0  0  0  3  0  0  0  0  0  0
    1.3240   -2.1990   -8.5450 C   0  0  0  0  0  1  0  0  0  0  0  0
    0.2460   -1.7100   -7.7860 O   0  0  0  0  0  0  0  0  0  0  0  0
   -0.3420    3.8230   -7.8720 C   0  0  0  0  0  0  0  0  0  0  0  0
   -0.3530    4.3520   -8.9480 O   0  0  0  0  0  0  0  0  0  0  0  0
   -0.5610    4.6070   -6.6910 C   0  0  0  0  0  0  0  0  0  0  0  0
   -1.5390    4.1720   -5.8280 C   0  0  0  0  0  3  0  0  0  0  0  0
   -1.8210    4.9350   -4.7170 C   0  0  0  0  0  3  0  0  0  0  0  0
   -1.1100    6.0910   -4.5000 C   0  0  0  0  0  3  0  0  0  0  0  0
   -0.1910    6.5100   -5.3370 C   0  0  0  0  0  3  0  0  0  0  0  0
    0.1010    5.7440   -6.4460 C   0  0  0  0  0  3  0  0  0  0  0  0
   -2.3260    2.1100   -8.8350 O   0  0  0  0  0  0  0  0  0  0  0  0
   -3.0780    2.3350   -8.2310 H   0  0  0  0  0  0  0  0  0  0  0  0
  1  8  1  0  0  0  0
  1  2  1  0  0  0  0
  3  2  2  0  0  0  0
  4  3  1  0  0  0  0
  5  6  1  0  0  0  0
  5  4  2  0  0  0  0
  6  1  2  0  0  0  0
  7  8  1  0  0  0  0
  9  4  1  0  0  0  0
  9 11  1  0  0  0  0
 10  9  2  0  0  0  0
 11 16  2  0  0  0  0
 11 12  1  0  0  0  0
 12 13  2  0  0  0  0
 13 14  1  0  0  0  0
 15 14  2  0  0  0  0
 16 15  1  0  0  0  0
 17  5  1  0  0  0  0
 17 18  1  0  0  0  0
M  END
>  <MODEL>
8

>  <REMARK>
 VINA RESULT:      -3.7      4.041      6.075
  Name = bgox31_2_ligand
  5 active torsions:
  status: ('A' for Active; 'I' for Inactive)
    1  A    between atoms: C_1  and  O_2
    2  A    between atoms: O_2  and  C_3
    3  A    between atoms: C_6  and  C_7
    4  A    between atoms: C_7  and  C_9
    5  A    between atoms: C_15  and  O_16
                            x       y       z     vdW  Elec       q    Type
                         _______ _______ _______ _____ _____    ______ ____

>  <TORSDO>
F 4

$$$$
bgox31_2_ligand
 OpenBabel10092621233D

 18 19  0  0  0  0  0  0  0  0999 V2000
   -3.5640   -9.6640  -10.6990 C   0  0  0  0  0  0  0  0  0  0  0  0
   -3.4930   -8.4480  -10.0110 C   0  0  0  0  0  3  0  0  0  0  0  0
   -2.4510   -7.5850  -10.2410 C   0  0  0  0  0  3  0  0  0  0  0  0
   -1.5010   -7.9410  -11.1570 C   0  0  0  0  0  0  0  0  0  0  0  0
   -1.5860   -9.1200  -11.8780 C   0  0  0  0  0  0  0  0  0  0  0  0
   -2.6270   -9.9670  -11.6430 C   0  0  0  0  0  3  0  0  0  0  0  0
   -5.4490  -10.8120  -11.4710 C   0  0  0  0  0  1  0  0  0  0  0  0
   -4.5680  -10.5020  -10.4190 O   0  0  0  0  0  0  0  0  0  0  0  0
   -0.3520   -6.9960  -11.3690 C   0  0  0  0  0  0  0  0  0  0  0  0
   -0.3600   -6.3160  -12.3570 O   0  0  0  0  0  0  0  0  0  0  0  0
    0.6710   -6.8050  -10.3830 C   0  0  0  0  0  0  0  0  0  0  0  0
    1.2280   -5.5500  -10.3000 C   0  0  0  0  0  3  0  0  0  0  0  0
    2.2570   -5.3460   -9.4080 C   0  0  0  0  0  3  0  0  0  0  0  0
    2.6800   -6.3930   -8.6240 C   0  0  0  0  0  3  0  0  0  0  0  0
    2.1570   -7.5910   -8.7200 C   0  0  0  0  0  3  0  0  0  0  0  0
    1.1200   -7.7970   -9.6050 C   0  0  0  0  0  3  0  0  0  0  0  0
   -0.6530   -9.3710  -12.8070 O   0  0  0  0  0  0  0  0  0  0  0  0
   -0.8910   -9.3420  -13.7690 H   0  0  0  0  0  0  0  0  0  0  0  0
  1  8  1  0  0  0  0
  1  2  1  0  0  0  0
  3  2  2  0  0  0  0
  4  3  1  0  0  0  0
  5  6  1  0  0  0  0
  5  4  2  0  0  0  0
  6  1  2  0  0  0  0
  7  8  1  0  0  0  0
  9  4  1  0  0  0  0
  9 11  1  0  0  0  0
 10  9  2  0  0  0  0
 11 12  2  0  0  0  0
 11 16  1  0  0  0  0
 12 13  1  0  0  0  0
 13 14  2  0  0  0  0
 15 14  1  0  0  0  0
 16 15  2  0  0  0  0
 17  5  1  0  0  0  0
 18 17  1  0  0  0  0
M  END
>  <MODEL>
9

>  <REMARK>
 VINA RESULT:      -3.7     13.809     15.761
  Name = bgox31_2_ligand
  5 active torsions:
  status: ('A' for Active; 'I' for Inactive)
    1  A    between atoms: C_1  and  O_2
    2  A    between atoms: O_2  and  C_3
    3  A    between atoms: C_6  and  C_7
    4  A    between atoms: C_7  and  C_9
    5  A    between atoms: C_15  and  O_16
                            x       y       z     vdW  Elec       q    Type
                         _______ _______ _______ _____ _____    ______ ____

>  <TORSDO>
F 4

$$$$
