bg33_2_ligand
     RDKit          3D

 44 44  0  0  0  0  0  0  0  0999 V2000
    9.1577   -7.0270    5.5019 C   0  0  0  0  0  0  0  0  0  0  0  0
    9.4119   -8.0700    4.3989 C   0  0  0  0  0  0  0  0  0  0  0  0
    8.2482   -8.1028    3.4420 C   0  0  0  0  0  0  0  0  0  0  0  0
    8.4254   -9.1500    2.3294 C   0  0  0  0  0  0  0  0  0  0  0  0
    7.1598   -9.3244    1.5397 C   0  0  1  0  0  0  0  0  0  0  0  0
    6.0584   -9.7478    2.4908 C   0  0  0  0  0  0  0  0  0  0  0  0
    6.1626  -11.2941    2.7940 C   0  0  0  0  0  0  0  0  0  0  0  0
    6.8515   -8.1146    0.7764 O   0  0  0  0  0  0  0  0  0  0  0  0
    7.5988   -7.8586   -0.4093 C   0  0  0  0  0  0  0  0  0  0  0  0
    8.4323   -8.6644   -0.7591 O   0  0  0  0  0  0  0  0  0  0  0  0
    7.4286   -6.5922   -1.1951 C   0  0  0  0  0  0  0  0  0  0  0  0
    6.3718   -5.7299   -1.0534 C   0  0  0  0  0  0  0  0  0  0  0  0
    6.3656   -4.4095   -1.7850 C   0  0  0  0  0  0  0  0  0  0  0  0
    7.5224   -3.9240   -2.3606 C   0  0  0  0  0  0  0  0  0  0  0  0
    7.4689   -2.6904   -3.0040 C   0  0  0  0  0  0  0  0  0  0  0  0
    6.3098   -1.9311   -3.0892 C   0  0  0  0  0  0  0  0  0  0  0  0
    6.3020   -0.6869   -3.7114 O   0  0  0  0  0  0  0  0  0  0  0  0
    6.8716   -0.6561   -5.0268 C   0  0  0  0  0  0  0  0  0  0  0  0
    5.1823   -2.4330   -2.4857 C   0  0  0  0  0  0  0  0  0  0  0  0
    5.1973   -3.6745   -1.8362 C   0  0  0  0  0  0  0  0  0  0  0  0
    8.6554   -6.1497    5.0681 H   0  0  0  0  0  0  0  0  0  0  0  0
    8.5191   -7.4667    6.2822 H   0  0  0  0  0  0  0  0  0  0  0  0
   10.1171   -6.7191    5.9436 H   0  0  0  0  0  0  0  0  0  0  0  0
   10.3273   -7.8040    3.8501 H   0  0  0  0  0  0  0  0  0  0  0  0
    9.5282   -9.0619    4.8602 H   0  0  0  0  0  0  0  0  0  0  0  0
    7.3345   -8.3403    4.0067 H   0  0  0  0  0  0  0  0  0  0  0  0
    8.1840   -7.1152    2.9622 H   0  0  0  0  0  0  0  0  0  0  0  0
    9.2280   -8.8218    1.6526 H   0  0  0  0  0  0  0  0  0  0  0  0
    8.6799  -10.1133    2.7956 H   0  0  0  0  0  0  0  0  0  0  0  0
    7.2730  -10.1169    0.7852 H   0  0  0  0  0  0  0  0  0  0  0  0
    6.1550   -9.1859    3.4315 H   0  0  0  0  0  0  0  0  0  0  0  0
    5.0835   -9.5386    2.0261 H   0  0  0  0  0  0  0  0  0  0  0  0
    5.7521  -11.8625    1.9464 H   0  0  0  0  0  0  0  0  0  0  0  0
    7.2174  -11.5683    2.9430 H   0  0  0  0  0  0  0  0  0  0  0  0
    5.5908  -11.5286    3.7040 H   0  0  0  0  0  0  0  0  0  0  0  0
    8.2029   -6.3384   -1.9341 H   0  0  0  0  0  0  0  0  0  0  0  0
    5.5260   -6.0011   -0.4045 H   0  0  0  0  0  0  0  0  0  0  0  0
    8.4608   -4.4958   -2.3123 H   0  0  0  0  0  0  0  0  0  0  0  0
    8.3874   -2.2994   -3.4661 H   0  0  0  0  0  0  0  0  0  0  0  0
    6.2031   -0.1030   -5.7030 H   0  0  0  0  0  0  0  0  0  0  0  0
    7.8513   -0.1571   -4.9907 H   0  0  0  0  0  0  0  0  0  0  0  0
    6.9973   -1.6846   -5.3961 H   0  0  0  0  0  0  0  0  0  0  0  0
    4.2505   -1.8493   -2.5129 H   0  0  0  0  0  0  0  0  0  0  0  0
    4.2807   -4.0629   -1.3683 H   0  0  0  0  0  0  0  0  0  0  0  0
  2  1  1  0
  3  2  1  0
  4  3  1  0
  5  4  1  0
  6  5  1  0
  7  6  1  0
  8  5  1  0
  9  8  1  0
 10  9  2  0
 11  9  1  0
 12 11  2  3
 13 12  1  0
 14 13  1  0
 15 14  2  0
 16 15  1  0
 17 16  1  0
 18 17  1  0
 19 16  2  0
 20 19  1  0
 20 13  2  0
  1 21  1  0
  1 22  1  0
  1 23  1  0
  2 24  1  0
  2 25  1  0
  3 26  1  0
  3 27  1  0
  4 28  1  0
  4 29  1  0
  5 30  1  6
  6 31  1  0
  6 32  1  0
  7 33  1  0
  7 34  1  0
  7 35  1  0
 11 36  1  0
 12 37  1  0
 14 38  1  0
 15 39  1  0
 18 40  1  0
 18 41  1  0
 18 42  1  0
 19 43  1  0
 20 44  1  0
M  END
$$$$
