bg33_2_ligand
 OpenBabel10092621143D

 20 20  0  0  1  0  0  0  0  0999 V2000
   12.6680   -4.5030    3.8810 C   0  0  0  0  0  0  0  0  0  0  0  0
   13.4920   -5.3890    3.8680 O   0  0  0  0  0  0  0  0  0  0  0  0
   11.2230   -4.8440    3.6590 C   0  0  0  0  0  3  0  0  0  0  0  0
   10.2680   -3.9430    3.2620 C   0  0  0  0  0  3  0  0  0  0  0  0
    8.8740   -4.4140    2.9260 C   0  0  0  0  0  0  0  0  0  0  0  0
    8.2150   -3.9170    1.8200 C   0  0  0  0  0  3  0  0  0  0  0  0
    6.9210   -4.3660    1.5680 C   0  0  0  0  0  3  0  0  0  0  0  0
    6.2690   -5.2850    2.3770 C   0  0  0  0  0  0  0  0  0  0  0  0
    6.9440   -5.7430    3.4830 C   0  0  0  0  0  3  0  0  0  0  0  0
    8.2510   -5.3190    3.7640 C   0  0  0  0  0  3  0  0  0  0  0  0
    4.9640   -5.6860    2.1130 O   0  0  0  0  0  0  0  0  0  0  0  0
    4.0040   -5.3600    3.1280 C   0  0  0  0  0  1  0  0  0  0  0  0
   13.1070   -3.1580    4.0440 O   0  0  0  0  0  0  0  0  0  0  0  0
   13.7240   -2.4890    2.8980 C   0  0  2  0  0  3  0  0  0  0  0  0
   15.0350   -1.8010    3.2210 C   0  0  0  0  0  2  0  0  0  0  0  0
   15.2570   -1.7550    4.7840 C   0  0  0  0  0  1  0  0  0  0  0  0
   12.7910   -1.4740    2.3040 C   0  0  0  0  0  2  0  0  0  0  0  0
   12.5800   -1.7230    0.8010 C   0  0  0  0  0  2  0  0  0  0  0  0
   11.3200   -3.5830   -0.2870 C   0  0  0  0  0  1  0  0  0  0  0  0
   12.6160   -3.1870    0.4440 C   0  0  0  0  0  2  0  0  0  0  0  0
  1 13  1  0  0  0  0
  2  1  2  0  0  0  0
  3  1  1  0  0  0  0
  4  3  2  0  0  0  0
  5  4  1  0  0  0  0
  5 10  1  0  0  0  0
  6  5  2  0  0  0  0
  7  6  1  0  0  0  0
  7  8  2  0  0  0  0
  8  9  1  0  0  0  0
  9 10  2  0  0  0  0
 11  8  1  0  0  0  0
 11 12  1  0  0  0  0
 14 17  1  1  0  0  0
 14 15  1  0  0  0  0
 14 13  1  0  0  0  0
 15 16  1  0  0  0  0
 18 17  1  0  0  0  0
 19 20  1  0  0  0  0
 20 18  1  0  0  0  0
M  END
>  <MODEL>
1

>  <REMARK>
 VINA RESULT:      -2.9      0.000      0.000
  Name = bg33_2_ligand
  12 active torsions:
  status: ('A' for Active; 'I' for Inactive)
    1  A    between atoms: C_1  and  C_2
    2  A    between atoms: C_2  and  C_3
    3  A    between atoms: C_3  and  C_4
    4  A    between atoms: C_4  and  C_5
    5  A    between atoms: C_5  and  C_6
    6  A    between atoms: C_5  and  O_8
    7  A    between atoms: C_6  and  C_7
    8  A    between atoms: O_8  and  C_9
    9  A    between atoms: C_9  and  C_11
   10  A    between atoms: C_12  and  C_13
   11  A    between atoms: C_16  and  O_17
   12  A    between atoms: O_17  and  C_18
                            x       y       z     vdW  Elec       q    Type
                         _______ _______ _______ _____ _____    ______ ____

>  <TORSDO>
F 9

$$$$
bg33_2_ligand
 OpenBabel10092621143D

 20 20  0  0  1  0  0  0  0  0999 V2000
    6.7330   -1.0560   -2.3050 C   0  0  0  0  0  0  0  0  0  0  0  0
    7.3820   -1.8290   -2.9730 O   0  0  0  0  0  0  0  0  0  0  0  0
    7.4440   -0.1090   -1.3840 C   0  0  0  0  0  3  0  0  0  0  0  0
    8.1620    0.9830   -1.8020 C   0  0  0  0  0  3  0  0  0  0  0  0
    8.7180    1.9560   -0.7910 C   0  0  0  0  0  0  0  0  0  0  0  0
   10.0630    1.9520   -0.4820 C   0  0  0  0  0  3  0  0  0  0  0  0
   10.5220    2.8540    0.4740 C   0  0  0  0  0  3  0  0  0  0  0  0
    9.6890    3.7520    1.1280 C   0  0  0  0  0  0  0  0  0  0  0  0
    8.3520    3.7150    0.8130 C   0  0  0  0  0  3  0  0  0  0  0  0
    7.8560    2.8250   -0.1500 C   0  0  0  0  0  3  0  0  0  0  0  0
   10.1770    4.6160    2.1020 O   0  0  0  0  0  0  0  0  0  0  0  0
   11.4900    4.3090    2.5920 C   0  0  0  0  0  1  0  0  0  0  0  0
    5.3110   -1.1170   -2.3710 O   0  0  0  0  0  0  0  0  0  0  0  0
    4.6230   -0.2120   -3.2920 C   0  0  2  0  0  3  0  0  0  0  0  0
    4.0900    1.0460   -2.6340 C   0  0  0  0  0  2  0  0  0  0  0  0
    4.9090    2.3060   -3.1180 C   0  0  0  0  0  1  0  0  0  0  0  0
    3.4830   -0.9080   -3.9750 C   0  0  0  0  0  2  0  0  0  0  0  0
    3.4290   -2.3970   -3.5920 C   0  0  0  0  0  2  0  0  0  0  0  0
    2.0350   -4.2960   -2.7670 C   0  0  0  0  0  1  0  0  0  0  0  0
    2.0190   -2.9020   -3.4190 C   0  0  0  0  0  2  0  0  0  0  0  0
  1  3  1  0  0  0  0
  2  1  2  0  0  0  0
  4  3  2  0  0  0  0
  4  5  1  0  0  0  0
  5  6  2  0  0  0  0
  5 10  1  0  0  0  0
  6  7  1  0  0  0  0
  7  8  2  0  0  0  0
  8 11  1  0  0  0  0
  9  8  1  0  0  0  0
 10  9  2  0  0  0  0
 11 12  1  0  0  0  0
 13  1  1  0  0  0  0
 14 17  1  1  0  0  0
 14 15  1  0  0  0  0
 14 13  1  0  0  0  0
 16 15  1  0  0  0  0
 17 18  1  0  0  0  0
 18 20  1  0  0  0  0
 20 19  1  0  0  0  0
M  END
>  <MODEL>
2

>  <REMARK>
 VINA RESULT:      -2.9      6.801     10.128
  Name = bg33_2_ligand
  12 active torsions:
  status: ('A' for Active; 'I' for Inactive)
    1  A    between atoms: C_1  and  C_2
    2  A    between atoms: C_2  and  C_3
    3  A    between atoms: C_3  and  C_4
    4  A    between atoms: C_4  and  C_5
    5  A    between atoms: C_5  and  C_6
    6  A    between atoms: C_5  and  O_8
    7  A    between atoms: C_6  and  C_7
    8  A    between atoms: O_8  and  C_9
    9  A    between atoms: C_9  and  C_11
   10  A    between atoms: C_12  and  C_13
   11  A    between atoms: C_16  and  O_17
   12  A    between atoms: O_17  and  C_18
                            x       y       z     vdW  Elec       q    Type
                         _______ _______ _______ _____ _____    ______ ____

>  <TORSDO>
F 9

$$$$
bg33_2_ligand
 OpenBabel10092621143D

 20 20  0  0  1  0  0  0  0  0999 V2000
    0.8210   -3.0620   -4.2650 C   0  0  0  0  0  0  0  0  0  0  0  0
   -0.0120   -3.6920   -3.6540 O   0  0  0  0  0  0  0  0  0  0  0  0
    1.9880   -2.4780   -3.5230 C   0  0  0  0  0  3  0  0  0  0  0  0
    3.2470   -2.3410   -4.0480 C   0  0  0  0  0  3  0  0  0  0  0  0
    4.3160   -1.6090   -3.2730 C   0  0  0  0  0  0  0  0  0  0  0  0
    5.4730   -2.2590   -2.8930 C   0  0  0  0  0  3  0  0  0  0  0  0
    6.4170   -1.5460   -2.1580 C   0  0  0  0  0  3  0  0  0  0  0  0
    6.2460   -0.2180   -1.7930 C   0  0  0  0  0  0  0  0  0  0  0  0
    5.0730    0.3930   -2.1680 C   0  0  0  0  0  3  0  0  0  0  0  0
    4.1030   -0.2920   -2.9140 C   0  0  0  0  0  3  0  0  0  0  0  0
    7.1960    0.4530   -1.0310 O   0  0  0  0  0  0  0  0  0  0  0  0
    8.4610    0.6640   -1.6750 C   0  0  0  0  0  1  0  0  0  0  0  0
    0.6310   -2.8420   -5.6590 O   0  0  0  0  0  0  0  0  0  0  0  0
    0.1810   -1.5200   -6.0950 C   0  0  2  0  0  3  0  0  0  0  0  0
   -1.3200   -1.4110   -6.2780 C   0  0  0  0  0  2  0  0  0  0  0  0
   -1.7720    0.1000   -6.1950 C   0  0  0  0  0  1  0  0  0  0  0  0
    0.8440   -1.1270   -7.3840 C   0  0  0  0  0  2  0  0  0  0  0  0
    2.1080   -0.2880   -7.1270 C   0  0  0  0  0  2  0  0  0  0  0  0
    3.1720    1.5880   -5.8710 C   0  0  0  0  0  1  0  0  0  0  0  0
    1.9540    0.6500   -5.9570 C   0  0  0  0  0  2  0  0  0  0  0  0
  1  2  2  0  0  0  0
  1  3  1  0  0  0  0
  4  3  2  0  0  0  0
  4  5  1  0  0  0  0
  5 10  2  0  0  0  0
  5  6  1  0  0  0  0
  6  7  2  0  0  0  0
  7  8  1  0  0  0  0
  8 11  1  0  0  0  0
  9  8  2  0  0  0  0
 10  9  1  0  0  0  0
 12 11  1  0  0  0  0
 13  1  1  0  0  0  0
 14 17  1  6  0  0  0
 14 13  1  0  0  0  0
 15 16  1  0  0  0  0
 15 14  1  0  0  0  0
 17 18  1  0  0  0  0
 18 20  1  0  0  0  0
 20 19  1  0  0  0  0
M  END
>  <MODEL>
3

>  <REMARK>
 VINA RESULT:      -2.9      8.521     12.544
  Name = bg33_2_ligand
  12 active torsions:
  status: ('A' for Active; 'I' for Inactive)
    1  A    between atoms: C_1  and  C_2
    2  A    between atoms: C_2  and  C_3
    3  A    between atoms: C_3  and  C_4
    4  A    between atoms: C_4  and  C_5
    5  A    between atoms: C_5  and  C_6
    6  A    between atoms: C_5  and  O_8
    7  A    between atoms: C_6  and  C_7
    8  A    between atoms: O_8  and  C_9
    9  A    between atoms: C_9  and  C_11
   10  A    between atoms: C_12  and  C_13
   11  A    between atoms: C_16  and  O_17
   12  A    between atoms: O_17  and  C_18
                            x       y       z     vdW  Elec       q    Type
                         _______ _______ _______ _____ _____    ______ ____

>  <TORSDO>
F 9

$$$$
bg33_2_ligand
 OpenBabel10092621143D

 20 20  0  0  1  0  0  0  0  0999 V2000
    2.5830   -5.7630    3.2100 C   0  0  0  0  0  0  0  0  0  0  0  0
    1.9270   -5.4760    4.1850 O   0  0  0  0  0  0  0  0  0  0  0  0
    3.9800   -5.2280    3.0830 C   0  0  0  0  0  3  0  0  0  0  0  0
    5.1110   -6.0010    3.1350 C   0  0  0  0  0  3  0  0  0  0  0  0
    6.4610   -5.3880    2.8510 C   0  0  0  0  0  0  0  0  0  0  0  0
    6.6390   -4.5560    1.7650 C   0  0  0  0  0  3  0  0  0  0  0  0
    7.9090   -4.0360    1.5330 C   0  0  0  0  0  3  0  0  0  0  0  0
    9.0000   -4.3180    2.3440 C   0  0  0  0  0  0  0  0  0  0  0  0
    8.7950   -5.1670    3.4050 C   0  0  0  0  0  3  0  0  0  0  0  0
    7.5280   -5.7030    3.6720 C   0  0  0  0  0  3  0  0  0  0  0  0
   10.2630   -3.8060    2.0640 O   0  0  0  0  0  0  0  0  0  0  0  0
   11.0780   -3.5240    3.2100 C   0  0  0  0  0  1  0  0  0  0  0  0
    1.9840   -6.5500    2.1850 O   0  0  0  0  0  0  0  0  0  0  0  0
    1.0390   -5.8990    1.2770 C   0  0  2  0  0  3  0  0  0  0  0  0
   -0.3330   -6.5430    1.2530 C   0  0  0  0  0  2  0  0  0  0  0  0
   -1.2120   -6.0000    2.4480 C   0  0  0  0  0  1  0  0  0  0  0  0
    1.5740   -5.8730   -0.1250 C   0  0  0  0  0  2  0  0  0  0  0  0
    2.6630   -6.9410   -0.3250 C   0  0  0  0  0  2  0  0  0  0  0  0
    5.1340   -7.2920   -0.3350 C   0  0  0  0  0  1  0  0  0  0  0  0
    3.9860   -6.3520   -0.7430 C   0  0  0  0  0  2  0  0  0  0  0  0
  1  2  2  0  0  0  0
  3  4  2  0  0  0  0
  3  1  1  0  0  0  0
  5  4  1  0  0  0  0
  5 10  1  0  0  0  0
  6  5  2  0  0  0  0
  7  6  1  0  0  0  0
  7  8  2  0  0  0  0
  8  9  1  0  0  0  0
  9 10  2  0  0  0  0
 11  8  1  0  0  0  0
 11 12  1  0  0  0  0
 13  1  1  0  0  0  0
 14 17  1  6  0  0  0
 14 13  1  0  0  0  0
 15 14  1  0  0  0  0
 15 16  1  0  0  0  0
 18 17  1  0  0  0  0
 20 19  1  0  0  0  0
 20 18  1  0  0  0  0
M  END
>  <MODEL>
4

>  <REMARK>
 VINA RESULT:      -2.9      2.899      9.265
  Name = bg33_2_ligand
  12 active torsions:
  status: ('A' for Active; 'I' for Inactive)
    1  A    between atoms: C_1  and  C_2
    2  A    between atoms: C_2  and  C_3
    3  A    between atoms: C_3  and  C_4
    4  A    between atoms: C_4  and  C_5
    5  A    between atoms: C_5  and  C_6
    6  A    between atoms: C_5  and  O_8
    7  A    between atoms: C_6  and  C_7
    8  A    between atoms: O_8  and  C_9
    9  A    between atoms: C_9  and  C_11
   10  A    between atoms: C_12  and  C_13
   11  A    between atoms: C_16  and  O_17
   12  A    between atoms: O_17  and  C_18
                            x       y       z     vdW  Elec       q    Type
                         _______ _______ _______ _____ _____    ______ ____

>  <TORSDO>
F 9

$$$$
bg33_2_ligand
 OpenBabel10092621143D

 20 20  0  0  1  0  0  0  0  0999 V2000
    7.9260   -4.1250    1.9090 C   0  0  0  0  0  0  0  0  0  0  0  0
    8.5390   -4.2560    0.8740 O   0  0  0  0  0  0  0  0  0  0  0  0
    6.4610   -4.4520    1.9390 C   0  0  0  0  0  3  0  0  0  0  0  0
    5.9320   -5.5780    2.5150 C   0  0  0  0  0  3  0  0  0  0  0  0
    4.4350   -5.7430    2.6210 C   0  0  0  0  0  0  0  0  0  0  0  0
    3.7160   -6.2860    1.5760 C   0  0  0  0  0  3  0  0  0  0  0  0
    2.3340   -6.3950    1.7140 C   0  0  0  0  0  3  0  0  0  0  0  0
    1.6530   -5.9830    2.8500 C   0  0  0  0  0  0  0  0  0  0  0  0
    2.3960   -5.4270    3.8640 C   0  0  0  0  0  3  0  0  0  0  0  0
    3.7890   -5.3070    3.7620 C   0  0  0  0  0  3  0  0  0  0  0  0
    0.2680   -6.0770    2.9400 O   0  0  0  0  0  0  0  0  0  0  0  0
   -0.4220   -6.1720    1.6860 C   0  0  0  0  0  1  0  0  0  0  0  0
    8.6030   -3.6060    3.0490 O   0  0  0  0  0  0  0  0  0  0  0  0
    9.7870   -4.3170    3.5330 C   0  0  2  0  0  3  0  0  0  0  0  0
    9.6860   -4.7680    4.9760 C   0  0  0  0  0  2  0  0  0  0  0  0
    8.7630   -6.0440    5.0860 C   0  0  0  0  0  1  0  0  0  0  0  0
   11.0180   -3.4700    3.3870 C   0  0  0  0  0  2  0  0  0  0  0  0
   12.2700   -4.2160    3.8780 C   0  0  0  0  0  2  0  0  0  0  0  0
   13.2450   -2.0180    3.2080 C   0  0  0  0  0  1  0  0  0  0  0  0
   13.5480   -3.4900    3.5430 C   0  0  0  0  0  2  0  0  0  0  0  0
  1  3  1  0  0  0  0
  1 13  1  0  0  0  0
  2  1  2  0  0  0  0
  3  4  2  0  0  0  0
  4  5  1  0  0  0  0
  5 10  1  0  0  0  0
  6  7  1  0  0  0  0
  6  5  2  0  0  0  0
  7  8  2  0  0  0  0
  8 11  1  0  0  0  0
  8  9  1  0  0  0  0
 10  9  2  0  0  0  0
 12 11  1  0  0  0  0
 13 14  1  0  0  0  0
 14 17  1  1  0  0  0
 14 15  1  0  0  0  0
 15 16  1  0  0  0  0
 17 18  1  0  0  0  0
 19 20  1  0  0  0  0
 20 18  1  0  0  0  0
M  END
>  <MODEL>
5

>  <REMARK>
 VINA RESULT:      -2.9      2.406      4.923
  Name = bg33_2_ligand
  12 active torsions:
  status: ('A' for Active; 'I' for Inactive)
    1  A    between atoms: C_1  and  C_2
    2  A    between atoms: C_2  and  C_3
    3  A    between atoms: C_3  and  C_4
    4  A    between atoms: C_4  and  C_5
    5  A    between atoms: C_5  and  C_6
    6  A    between atoms: C_5  and  O_8
    7  A    between atoms: C_6  and  C_7
    8  A    between atoms: O_8  and  C_9
    9  A    between atoms: C_9  and  C_11
   10  A    between atoms: C_12  and  C_13
   11  A    between atoms: C_16  and  O_17
   12  A    between atoms: O_17  and  C_18
                            x       y       z     vdW  Elec       q    Type
                         _______ _______ _______ _____ _____    ______ ____

>  <TORSDO>
F 9

$$$$
bg33_2_ligand
 OpenBabel10092621143D

 20 20  0  0  1  0  0  0  0  0999 V2000
    0.9900   -3.9750   -3.7930 C   0  0  0  0  0  0  0  0  0  0  0  0
    0.5460   -4.8650   -3.1040 O   0  0  0  0  0  0  0  0  0  0  0  0
    2.0770   -3.0970   -3.2450 C   0  0  0  0  0  3  0  0  0  0  0  0
    2.9570   -2.3840   -4.0170 C   0  0  0  0  0  3  0  0  0  0  0  0
    3.9200   -1.4160   -3.3730 C   0  0  0  0  0  0  0  0  0  0  0  0
    3.5600   -0.0980   -3.1750 C   0  0  0  0  0  3  0  0  0  0  0  0
    4.4930    0.7600   -2.5990 C   0  0  0  0  0  3  0  0  0  0  0  0
    5.7630    0.3490   -2.2170 C   0  0  0  0  0  0  0  0  0  0  0  0
    6.0980   -0.9630   -2.4480 C   0  0  0  0  0  3  0  0  0  0  0  0
    5.1810   -1.8570   -3.0200 C   0  0  0  0  0  3  0  0  0  0  0  0
    6.6810    1.2420   -1.6740 O   0  0  0  0  0  0  0  0  0  0  0  0
    6.6410    2.5690   -2.2180 C   0  0  0  0  0  1  0  0  0  0  0  0
    0.4210   -3.7540   -5.0800 O   0  0  0  0  0  0  0  0  0  0  0  0
   -0.9480   -3.2440   -5.1510 C   0  0  2  0  0  3  0  0  0  0  0  0
   -1.8950   -4.1330   -5.9330 C   0  0  0  0  0  2  0  0  0  0  0  0
   -2.5900   -5.1720   -4.9680 C   0  0  0  0  0  1  0  0  0  0  0  0
   -0.9780   -1.8710   -5.7590 C   0  0  0  0  0  2  0  0  0  0  0  0
    0.2840   -1.6060   -6.5980 C   0  0  0  0  0  2  0  0  0  0  0  0
    2.3050   -0.1820   -6.9400 C   0  0  0  0  0  1  0  0  0  0  0  0
    0.9070   -0.2660   -6.3020 C   0  0  0  0  0  2  0  0  0  0  0  0
  1  3  1  0  0  0  0
  1  2  2  0  0  0  0
  4  5  1  0  0  0  0
  4  3  2  0  0  0  0
  5  6  2  0  0  0  0
  5 10  1  0  0  0  0
  6  7  1  0  0  0  0
  7  8  2  0  0  0  0
  8 11  1  0  0  0  0
  9  8  1  0  0  0  0
 10  9  2  0  0  0  0
 12 11  1  0  0  0  0
 13  1  1  0  0  0  0
 14 15  1  6  0  0  0
 14 13  1  0  0  0  0
 15 16  1  0  0  0  0
 17 14  1  0  0  0  0
 18 20  1  0  0  0  0
 18 17  1  0  0  0  0
 19 20  1  0  0  0  0
M  END
>  <MODEL>
6

>  <REMARK>
 VINA RESULT:      -2.9      8.466     12.840
  Name = bg33_2_ligand
  12 active torsions:
  status: ('A' for Active; 'I' for Inactive)
    1  A    between atoms: C_1  and  C_2
    2  A    between atoms: C_2  and  C_3
    3  A    between atoms: C_3  and  C_4
    4  A    between atoms: C_4  and  C_5
    5  A    between atoms: C_5  and  C_6
    6  A    between atoms: C_5  and  O_8
    7  A    between atoms: C_6  and  C_7
    8  A    between atoms: O_8  and  C_9
    9  A    between atoms: C_9  and  C_11
   10  A    between atoms: C_12  and  C_13
   11  A    between atoms: C_16  and  O_17
   12  A    between atoms: O_17  and  C_18
                            x       y       z     vdW  Elec       q    Type
                         _______ _______ _______ _____ _____    ______ ____

>  <TORSDO>
F 9

$$$$
bg33_2_ligand
 OpenBabel10092621143D

 20 20  0  0  1  0  0  0  0  0999 V2000
   11.9940    0.9970   -0.6990 C   0  0  0  0  0  0  0  0  0  0  0  0
   12.7060    0.3500   -1.4330 O   0  0  0  0  0  0  0  0  0  0  0  0
   10.5040    0.8990   -0.8490 C   0  0  0  0  0  3  0  0  0  0  0  0
    9.7990    1.4020   -1.9120 C   0  0  0  0  0  3  0  0  0  0  0  0
    8.3210    1.1250   -2.0420 C   0  0  0  0  0  0  0  0  0  0  0  0
    7.5250    1.9290   -2.8320 C   0  0  0  0  0  3  0  0  0  0  0  0
    6.1640    1.6450   -2.8990 C   0  0  0  0  0  3  0  0  0  0  0  0
    5.5750    0.5950   -2.2080 C   0  0  0  0  0  0  0  0  0  0  0  0
    6.3920   -0.1730   -1.4140 C   0  0  0  0  0  3  0  0  0  0  0  0
    7.7680    0.0790   -1.3280 C   0  0  0  0  0  3  0  0  0  0  0  0
    4.2060    0.3610   -2.2730 O   0  0  0  0  0  0  0  0  0  0  0  0
    3.7860   -0.5380   -3.3090 C   0  0  0  0  0  1  0  0  0  0  0  0
   12.5990    1.8790    0.2430 O   0  0  0  0  0  0  0  0  0  0  0  0
   12.1100    3.2560    0.3110 C   0  0  2  0  0  3  0  0  0  0  0  0
   13.1400    4.2940   -0.0920 C   0  0  0  0  0  2  0  0  0  0  0  0
   14.2010    4.4870    1.0610 C   0  0  0  0  0  1  0  0  0  0  0  0
   11.6250    3.5840    1.6930 C   0  0  0  0  0  2  0  0  0  0  0  0
   10.0960    3.4410    1.7950 C   0  0  0  0  0  2  0  0  0  0  0  0
    7.9080    3.6490    0.6130 C   0  0  0  0  0  1  0  0  0  0  0  0
    9.3720    4.1210    0.6620 C   0  0  0  0  0  2  0  0  0  0  0  0
  1 13  1  0  0  0  0
  2  1  2  0  0  0  0
  3  1  1  0  0  0  0
  4  3  2  0  0  0  0
  5  4  1  0  0  0  0
  5 10  1  0  0  0  0
  6  5  2  0  0  0  0
  7  6  1  0  0  0  0
  7  8  2  0  0  0  0
  8  9  1  0  0  0  0
  9 10  2  0  0  0  0
 11  8  1  0  0  0  0
 12 11  1  0  0  0  0
 13 14  1  0  0  0  0
 14 15  1  1  0  0  0
 14 17  1  0  0  0  0
 15 16  1  0  0  0  0
 17 18  1  0  0  0  0
 19 20  1  0  0  0  0
 20 18  1  0  0  0  0
M  END
>  <MODEL>
7

>  <REMARK>
 VINA RESULT:      -2.9      6.227      7.270
  Name = bg33_2_ligand
  12 active torsions:
  status: ('A' for Active; 'I' for Inactive)
    1  A    between atoms: C_1  and  C_2
    2  A    between atoms: C_2  and  C_3
    3  A    between atoms: C_3  and  C_4
    4  A    between atoms: C_4  and  C_5
    5  A    between atoms: C_5  and  C_6
    6  A    between atoms: C_5  and  O_8
    7  A    between atoms: C_6  and  C_7
    8  A    between atoms: O_8  and  C_9
    9  A    between atoms: C_9  and  C_11
   10  A    between atoms: C_12  and  C_13
   11  A    between atoms: C_16  and  O_17
   12  A    between atoms: O_17  and  C_18
                            x       y       z     vdW  Elec       q    Type
                         _______ _______ _______ _____ _____    ______ ____

>  <TORSDO>
F 9

$$$$
bg33_2_ligand
 OpenBabel10092621143D

 20 20  0  0  1  0  0  0  0  0999 V2000
    4.8490   -5.5090    9.3070 C   0  0  0  0  0  0  0  0  0  0  0  0
    4.8640   -6.6210    9.7840 O   0  0  0  0  0  0  0  0  0  0  0  0
    4.2800   -5.3090    7.9330 C   0  0  0  0  0  3  0  0  0  0  0  0
    4.6360   -6.0470    6.8330 C   0  0  0  0  0  3  0  0  0  0  0  0
    3.9010   -5.8670    5.5280 C   0  0  0  0  0  0  0  0  0  0  0  0
    4.5800   -5.9240    4.3280 C   0  0  0  0  0  3  0  0  0  0  0  0
    3.8600   -5.7270    3.1530 C   0  0  0  0  0  3  0  0  0  0  0  0
    2.4950   -5.4760    3.1360 C   0  0  0  0  0  0  0  0  0  0  0  0
    1.8520   -5.4040    4.3480 C   0  0  0  0  0  3  0  0  0  0  0  0
    2.5440   -5.6030    5.5510 C   0  0  0  0  0  3  0  0  0  0  0  0
    1.8130   -5.2520    1.9440 O   0  0  0  0  0  0  0  0  0  0  0  0
    1.8950   -6.3130    0.9820 C   0  0  0  0  0  1  0  0  0  0  0  0
    5.4310   -4.4370   10.0430 O   0  0  0  0  0  0  0  0  0  0  0  0
    6.0510   -3.3420    9.2950 C   0  0  2  0  0  3  0  0  0  0  0  0
    7.5500   -3.2320    9.4980 C   0  0  0  0  0  2  0  0  0  0  0  0
    8.3140   -3.7610    8.2220 C   0  0  0  0  0  1  0  0  0  0  0  0
    5.4270   -2.0260    9.6560 C   0  0  0  0  0  2  0  0  0  0  0  0
    4.5190   -1.5110    8.5260 C   0  0  0  0  0  2  0  0  0  0  0  0
    2.4250   -2.2350    7.3760 C   0  0  0  0  0  1  0  0  0  0  0  0
    3.0720   -1.8850    8.7280 C   0  0  0  0  0  2  0  0  0  0  0  0
  1  2  2  0  0  0  0
  1 13  1  0  0  0  0
  3  1  1  0  0  0  0
  4  3  2  0  0  0  0
  5 10  1  0  0  0  0
  5  4  1  0  0  0  0
  6  5  2  0  0  0  0
  7  6  1  0  0  0  0
  8  7  2  0  0  0  0
  8  9  1  0  0  0  0
  9 10  2  0  0  0  0
 11  8  1  0  0  0  0
 12 11  1  0  0  0  0
 14 15  1  1  0  0  0
 14 17  1  0  0  0  0
 14 13  1  0  0  0  0
 16 15  1  0  0  0  0
 18 20  1  0  0  0  0
 18 17  1  0  0  0  0
 19 20  1  0  0  0  0
M  END
>  <MODEL>
8

>  <REMARK>
 VINA RESULT:      -2.9      6.639      8.305
  Name = bg33_2_ligand
  12 active torsions:
  status: ('A' for Active; 'I' for Inactive)
    1  A    between atoms: C_1  and  C_2
    2  A    between atoms: C_2  and  C_3
    3  A    between atoms: C_3  and  C_4
    4  A    between atoms: C_4  and  C_5
    5  A    between atoms: C_5  and  C_6
    6  A    between atoms: C_5  and  O_8
    7  A    between atoms: C_6  and  C_7
    8  A    between atoms: O_8  and  C_9
    9  A    between atoms: C_9  and  C_11
   10  A    between atoms: C_12  and  C_13
   11  A    between atoms: C_16  and  O_17
   12  A    between atoms: O_17  and  C_18
                            x       y       z     vdW  Elec       q    Type
                         _______ _______ _______ _____ _____    ______ ____

>  <TORSDO>
F 9

$$$$
bg33_2_ligand
 OpenBabel10092621143D

 20 20  0  0  1  0  0  0  0  0999 V2000
   14.1120   -1.8130    3.3910 C   0  0  0  0  0  0  0  0  0  0  0  0
   14.9120   -1.7660    2.4850 O   0  0  0  0  0  0  0  0  0  0  0  0
   12.6850   -2.1680    3.0910 C   0  0  0  0  0  3  0  0  0  0  0  0
   12.2800   -3.3730    2.5780 C   0  0  0  0  0  3  0  0  0  0  0  0
   10.8090   -3.6860    2.4480 C   0  0  0  0  0  0  0  0  0  0  0  0
   10.0280   -3.8590    3.5720 C   0  0  0  0  0  3  0  0  0  0  0  0
    8.6820   -4.1700    3.3980 C   0  0  0  0  0  3  0  0  0  0  0  0
    8.0950   -4.3140    2.1490 C   0  0  0  0  0  0  0  0  0  0  0  0
    8.9050   -4.1580    1.0500 C   0  0  0  0  0  3  0  0  0  0  0  0
   10.2630   -3.8380    1.1880 C   0  0  0  0  0  3  0  0  0  0  0  0
    6.7540   -4.6580    2.0130 O   0  0  0  0  0  0  0  0  0  0  0  0
    6.4730   -5.6450    1.0110 C   0  0  0  0  0  1  0  0  0  0  0  0
   14.5400   -1.4670    4.7050 O   0  0  0  0  0  0  0  0  0  0  0  0
   15.5880   -2.2780    5.3250 C   0  0  2  0  0  3  0  0  0  0  0  0
   16.9950   -1.8050    5.0180 C   0  0  0  0  0  2  0  0  0  0  0  0
   17.0290   -0.2300    4.9070 C   0  0  0  0  0  1  0  0  0  0  0  0
   15.4710   -3.7150    4.9070 C   0  0  0  0  0  2  0  0  0  0  0  0
   14.5150   -4.4890    5.8320 C   0  0  0  0  0  2  0  0  0  0  0  0
   12.3580   -5.7370    5.7030 C   0  0  0  0  0  1  0  0  0  0  0  0
   13.7710   -5.5850    5.1130 C   0  0  0  0  0  2  0  0  0  0  0  0
  1 13  1  0  0  0  0
  2  1  2  0  0  0  0
  3  1  1  0  0  0  0
  4  3  2  0  0  0  0
  5  4  1  0  0  0  0
  5  6  1  0  0  0  0
  7  6  2  0  0  0  0
  8  7  1  0  0  0  0
  9 10  1  0  0  0  0
  9  8  2  0  0  0  0
 10  5  2  0  0  0  0
 11  8  1  0  0  0  0
 12 11  1  0  0  0  0
 13 14  1  0  0  0  0
 14 17  1  6  0  0  0
 15 14  1  0  0  0  0
 16 15  1  0  0  0  0
 17 18  1  0  0  0  0
 20 19  1  0  0  0  0
 20 18  1  0  0  0  0
M  END
>  <MODEL>
9

>  <REMARK>
 VINA RESULT:      -2.9      1.887      3.580
  Name = bg33_2_ligand
  12 active torsions:
  status: ('A' for Active; 'I' for Inactive)
    1  A    between atoms: C_1  and  C_2
    2  A    between atoms: C_2  and  C_3
    3  A    between atoms: C_3  and  C_4
    4  A    between atoms: C_4  and  C_5
    5  A    between atoms: C_5  and  C_6
    6  A    between atoms: C_5  and  O_8
    7  A    between atoms: C_6  and  C_7
    8  A    between atoms: O_8  and  C_9
    9  A    between atoms: C_9  and  C_11
   10  A    between atoms: C_12  and  C_13
   11  A    between atoms: C_16  and  O_17
   12  A    between atoms: O_17  and  C_18
                            x       y       z     vdW  Elec       q    Type
                         _______ _______ _______ _____ _____    ______ ____

>  <TORSDO>
F 9

$$$$
