ox2_esm2_f8_ligand
     RDKit          3D

 29 30  0  0  0  0  0  0  0  0999 V2000
    3.0900   -6.0770    5.9930 C   0  0  0  0  0  0  0  0  0  0  0  0
    2.7110   -4.9640    5.2040 O   0  0  0  0  0  0  0  0  0  0  0  0
    2.4700   -3.8140    5.8430 C   0  0  0  0  0  0  0  0  0  0  0  0
    2.9540   -2.6410    5.3180 C   0  0  0  0  0  0  0  0  0  0  0  0
    2.7380   -1.4620    5.9650 C   0  0  0  0  0  0  0  0  0  0  0  0
    2.0230   -1.4460    7.1180 C   0  0  0  0  0  0  0  0  0  0  0  0
    1.8030   -0.2010    7.8390 C   0  0  0  0  0  0  0  0  0  0  0  0
    1.4310   -0.2450    8.9670 O   0  0  0  0  0  0  0  0  0  0  0  0
    2.0950    1.0870    7.2660 C   0  0  0  0  0  0  0  0  0  0  0  0
    1.4870    1.4840    6.1150 C   0  0  0  0  0  0  0  0  0  0  0  0
    1.7640    2.7150    5.5950 C   0  0  0  0  0  0  0  0  0  0  0  0
    2.6510    3.5440    6.2350 C   0  0  0  0  0  0  0  0  0  0  0  0
    3.2480    3.1440    7.3920 C   0  0  0  0  0  0  0  0  0  0  0  0
    2.9490    1.9150    7.9350 C   0  0  0  0  0  0  0  0  0  0  0  0
    1.5230   -2.6150    7.6450 C   0  0  0  0  0  0  0  0  0  0  0  0
    0.8230   -2.5860    8.7980 O   0  0  0  0  0  0  0  0  0  0  0  0
    1.7540   -3.7980    7.0000 C   0  0  0  0  0  0  0  0  0  0  0  0
    3.0019   -5.8182    7.0585 H   0  0  0  0  0  0  0  0  0  0  0  0
    2.4311   -6.9283    5.7667 H   0  0  0  0  0  0  0  0  0  0  0  0
    4.1315   -6.3492    5.7667 H   0  0  0  0  0  0  0  0  0  0  0  0
    3.5172   -2.6536    4.3732 H   0  0  0  0  0  0  0  0  0  0  0  0
    3.1422   -0.5252    5.5538 H   0  0  0  0  0  0  0  0  0  0  0  0
    0.7760    0.8162    5.6065 H   0  0  0  0  0  0  0  0  0  0  0  0
    1.2772    3.0422    4.6645 H   0  0  0  0  0  0  0  0  0  0  0  0
    2.8802    4.5335    5.8127 H   0  0  0  0  0  0  0  0  0  0  0  0
    3.9706    3.8045    7.8936 H   0  0  0  0  0  0  0  0  0  0  0  0
    3.3915    1.6051    8.8932 H   0  0  0  0  0  0  0  0  0  0  0  0
    0.4622   -3.4254    9.1793 H   0  0  0  0  0  0  0  0  0  0  0  0
    1.3610   -4.7372    7.4164 H   0  0  0  0  0  0  0  0  0  0  0  0
  2  1  1  0
  3  2  1  0
  4  3  1  0
  5  4  2  0
  6  5  1  0
  7  6  1  0
  8  7  2  0
  9  7  1  0
 10  9  2  0
 11 10  1  0
 12 11  2  0
 13 12  1  0
 14 13  2  0
 14  9  1  0
 15  6  2  0
 16 15  1  0
 17 15  1  0
 17  3  2  0
  1 18  1  0
  1 19  1  0
  1 20  1  0
  4 21  1  0
  5 22  1  0
 10 23  1  0
 11 24  1  0
 12 25  1  0
 13 26  1  0
 14 27  1  0
 16 28  1  0
 17 29  1  0
M  END
$$$$
