ox2_orig_f8_dockpose4
     RDKit          3D

 17 18  0  0  0  0  0  0  0  0999 V2000
   -0.8130    2.3280   -5.8350 C   0  0  0  0  0  0  0  0  0  0  0  0
   -0.6830    0.9980   -5.4260 O   0  0  0  0  0  0  0  0  0  0  0  0
   -0.4050    0.7140   -4.1250 C   0  0  0  0  0  0  0  0  0  0  0  0
   -0.8150   -0.5140   -3.6490 C   0  0  0  0  0  0  0  0  0  0  0  0
   -0.5670   -0.8720   -2.3440 C   0  0  0  0  0  0  0  0  0  0  0  0
    0.1050   -0.0110   -1.5100 C   0  0  0  0  0  0  0  0  0  0  0  0
    0.3540   -0.4170   -0.1230 C   0  0  0  0  0  0  0  0  0  0  0  0
    0.3030    0.3870    0.6380 O   0  0  0  0  0  0  0  0  0  0  0  0
    0.5110   -1.7420    0.4220 C   0  0  0  0  0  0  0  0  0  0  0  0
   -0.1750   -2.7950   -0.1160 C   0  0  0  0  0  0  0  0  0  0  0  0
   -0.0180   -4.0630    0.3980 C   0  0  0  0  0  0  0  0  0  0  0  0
    0.8180   -4.2810    1.4670 C   0  0  0  0  0  0  0  0  0  0  0  0
    1.5280   -3.2260    1.9990 C   0  0  0  0  0  0  0  0  0  0  0  0
    1.3890   -1.9500    1.4730 C   0  0  0  0  0  0  0  0  0  0  0  0
    0.5080    1.2380   -1.9780 C   0  0  0  0  0  0  0  0  0  0  0  0
    1.1390    2.0910   -1.1540 O   0  0  0  0  0  0  0  0  0  0  0  0
    0.2510    1.5870   -3.2840 C   0  0  0  0  0  0  0  0  0  0  0  0
  2  1  1  0
  3  2  1  0
  4  3  1  0
  5  4  2  0
  6  5  1  0
  7  6  1  0
  8  7  2  0
  9  7  1  0
 10  9  2  0
 11 10  1  0
 12 11  2  0
 13 12  1  0
 14 13  2  0
 14  9  1  0
 15  6  2  0
 16 15  1  0
 17 15  1  0
 17  3  2  0
M  END
$$$$
