bg33_2_dockpose4
     RDKit          3D

 20 20  0  0  0  0  0  0  0  0999 V2000
    4.9350    3.5520    3.0730 C   0  0  0  0  0  0  0  0  0  0  0  0
    3.9670    2.5520    3.7290 C   0  0  0  0  0  0  0  0  0  0  0  0
    4.5520    1.1640    3.6850 C   0  0  0  0  0  0  0  0  0  0  0  0
    3.5680    0.0900    4.1810 C   0  0  0  0  0  0  0  0  0  0  0  0
    3.4450   -1.0330    3.1920 C   0  0  1  0  0  0  0  0  0  0  0  0
    4.8180   -1.3130    2.6140 C   0  0  0  0  0  0  0  0  0  0  0  0
    4.6970   -1.7370    1.0980 C   0  0  0  0  0  0  0  0  0  0  0  0
    2.8110   -2.2000    3.8070 O   0  0  0  0  0  0  0  0  0  0  0  0
    1.5160   -2.5800    3.3510 C   0  0  0  0  0  0  0  0  0  0  0  0
    1.3880   -2.9660    2.2100 O   0  0  0  0  0  0  0  0  0  0  0  0
    0.3010   -2.4520    4.2220 C   0  0  0  0  0  0  0  0  0  0  0  0
    0.0730   -1.4110    5.0840 C   0  0  0  0  0  0  0  0  0  0  0  0
   -1.2460   -1.2990    5.8080 C   0  0  0  0  0  0  0  0  0  0  0  0
   -2.1250   -2.3630    5.8280 C   0  0  0  0  0  0  0  0  0  0  0  0
   -3.3400   -2.2010    6.4890 C   0  0  0  0  0  0  0  0  0  0  0  0
   -3.7030   -1.0210    7.1250 C   0  0  0  0  0  0  0  0  0  0  0  0
   -4.9390   -0.8840    7.7480 O   0  0  0  0  0  0  0  0  0  0  0  0
   -5.9020   -1.8980    7.4300 C   0  0  0  0  0  0  0  0  0  0  0  0
   -2.8150    0.0250    7.0660 C   0  0  0  0  0  0  0  0  0  0  0  0
   -1.5810   -0.1050    6.4160 C   0  0  0  0  0  0  0  0  0  0  0  0
  2  1  1  0
  3  2  1  0
  4  3  1  0
  5  4  1  1
  6  5  1  0
  7  6  1  0
  8  5  1  0
  9  8  1  0
 10  9  2  0
 11  9  1  0
 12 11  2  3
 13 12  1  0
 14 13  1  0
 15 14  2  0
 16 15  1  0
 17 16  1  0
 18 17  1  0
 19 16  2  0
 20 19  1  0
 20 13  2  0
M  END
