s3_esm2_f4_ligand
 OpenBabel10092621063D

 20 20  0  0  1  0  0  0  0  0999 V2000
   -0.5480   -6.5190   -2.5760 C   0  0  0  0  0  0  0  0  0  0  0  0
   -0.7940   -7.6670   -2.3240 O   0  0  0  0  0  0  0  0  0  0  0  0
   -0.8970   -5.8900   -3.8460 C   0  0  0  0  0  3  0  0  0  0  0  0
   -1.5990   -4.7630   -3.8790 C   0  0  0  0  0  3  0  0  0  0  0  0
   -1.8050   -3.9690   -5.1110 C   0  0  0  0  0  0  0  0  0  0  0  0
   -0.7390   -3.5550   -5.8830 C   0  0  0  0  0  3  0  0  0  0  0  0
   -0.9610   -2.7850   -7.0100 C   0  0  0  0  0  3  0  0  0  0  0  0
   -2.2240   -2.4230   -7.3730 C   0  0  0  0  0  0  0  0  0  0  0  0
   -3.2910   -2.8420   -6.6060 C   0  0  0  0  0  3  0  0  0  0  0  0
   -3.0740   -3.6130   -5.4820 C   0  0  0  0  0  3  0  0  0  0  0  0
   -2.3990   -1.6610   -8.4750 O   0  0  0  0  0  0  0  0  0  0  0  0
   -1.3520   -1.5430   -9.4240 C   0  0  0  0  0  1  0  0  0  0  0  0
    0.1050   -5.7150   -1.6970 O   0  0  0  0  0  0  0  0  0  0  0  0
   -0.3380   -5.6590   -0.3540 C   0  0  1  0  0  3  0  0  0  0  0  0
    0.8190   -5.3450    0.5640 C   0  0  0  0  0  2  0  0  0  0  0  0
    0.5640   -5.6440    2.0120 C   0  0  0  0  0  1  0  0  0  0  0  0
   -1.4010   -4.5780   -0.2210 C   0  0  0  0  0  2  0  0  0  0  0  0
   -2.6340   -5.0960    0.4620 C   0  0  0  0  0  2  0  0  0  0  0  0
   -3.9060   -6.8360   -0.8040 C   0  0  0  0  0  1  0  0  0  0  0  0
   -2.8030   -6.5760    0.2270 C   0  0  0  0  0  2  0  0  0  0  0  0
  1  2  2  0  0  0  0
  1 13  1  0  0  0  0
  3  1  1  0  0  0  0
  4  3  2  0  0  0  0
  5  4  1  0  0  0  0
  6  5  2  0  0  0  0
  7  6  1  0  0  0  0
  8  7  2  0  0  0  0
  8  9  1  0  0  0  0
  9 10  2  0  0  0  0
 10  5  1  0  0  0  0
 11  8  1  0  0  0  0
 12 11  1  0  0  0  0
 13 14  1  0  0  0  0
 14 17  1  6  0  0  0
 14 15  1  0  0  0  0
 15 16  1  0  0  0  0
 17 18  1  0  0  0  0
 19 20  1  0  0  0  0
 20 18  1  0  0  0  0
M  END
>  <MODEL>
1

>  <REMARK>
 VINA RESULT:      -4.9      0.000      0.000
  Name = s3_esm2_f4_ligand
  12 active torsions:
  status: ('A' for Active; 'I' for Inactive)
    1  A    between atoms: C_1  and  C_2
    2  A    between atoms: C_2  and  C_3
    3  A    between atoms: C_3  and  C_4
    4  A    between atoms: C_4  and  C_5
    5  A    between atoms: C_5  and  C_6
    6  A    between atoms: C_5  and  O_8
    7  A    between atoms: C_6  and  C_7
    8  A    between atoms: O_8  and  C_9
    9  A    between atoms: C_9  and  C_11
   10  A    between atoms: C_12  and  C_13
   11  A    between atoms: C_16  and  O_17
   12  A    between atoms: O_17  and  C_18
                            x       y       z     vdW  Elec       q    Type
                         _______ _______ _______ _____ _____    ______ ____

>  <TORSDO>
F 9

$$$$
s3_esm2_f4_ligand
 OpenBabel10092621063D

 20 20  0  0  1  0  0  0  0  0999 V2000
   -2.9220   -5.5970   -3.6880 C   0  0  0  0  0  0  0  0  0  0  0  0
   -4.0380   -5.9060   -4.0050 O   0  0  0  0  0  0  0  0  0  0  0  0
   -2.0900   -4.6930   -4.4770 C   0  0  0  0  0  3  0  0  0  0  0  0
   -1.1560   -5.1640   -5.2940 C   0  0  0  0  0  3  0  0  0  0  0  0
   -0.4280   -4.3220   -6.2680 C   0  0  0  0  0  0  0  0  0  0  0  0
    0.4980   -4.8670   -7.1350 C   0  0  0  0  0  3  0  0  0  0  0  0
    1.1880   -4.0490   -8.0110 C   0  0  0  0  0  3  0  0  0  0  0  0
    0.9700   -2.7040   -8.0320 C   0  0  0  0  0  0  0  0  0  0  0  0
    0.0400   -2.1580   -7.1710 C   0  0  0  0  0  3  0  0  0  0  0  0
   -0.6520   -2.9720   -6.2970 C   0  0  0  0  0  3  0  0  0  0  0  0
    1.6720   -1.9380   -8.8950 O   0  0  0  0  0  0  0  0  0  0  0  0
    1.9550   -0.5860   -8.5700 C   0  0  0  0  0  1  0  0  0  0  0  0
   -2.3320   -6.0910   -2.5680 O   0  0  0  0  0  0  0  0  0  0  0  0
   -2.4440   -5.3710   -1.3540 C   0  0  1  0  0  3  0  0  0  0  0  0
   -3.0410   -6.2500   -0.2810 C   0  0  0  0  0  2  0  0  0  0  0  0
   -3.0100   -5.6570    1.0970 C   0  0  0  0  0  1  0  0  0  0  0  0
   -1.0620   -4.9050   -0.9190 C   0  0  0  0  0  2  0  0  0  0  0  0
    0.0120   -5.8400   -1.3960 C   0  0  0  0  0  2  0  0  0  0  0  0
    0.8660   -5.0910    0.8300 C   0  0  0  0  0  1  0  0  0  0  0  0
    1.2130   -5.7980   -0.4840 C   0  0  0  0  0  2  0  0  0  0  0  0
  1 13  1  0  0  0  0
  2  1  2  0  0  0  0
  3  1  1  0  0  0  0
  4  3  2  0  0  0  0
  5  4  1  0  0  0  0
  6  5  2  0  0  0  0
  7  6  1  0  0  0  0
  8  7  2  0  0  0  0
  8  9  1  0  0  0  0
  9 10  2  0  0  0  0
 10  5  1  0  0  0  0
 11 12  1  0  0  0  0
 11  8  1  0  0  0  0
 13 14  1  0  0  0  0
 14 17  1  1  0  0  0
 14 15  1  0  0  0  0
 15 16  1  0  0  0  0
 18 17  1  0  0  0  0
 18 20  1  0  0  0  0
 20 19  1  0  0  0  0
M  END
>  <MODEL>
2

>  <REMARK>
 VINA RESULT:      -4.9      2.039      3.193
  Name = s3_esm2_f4_ligand
  12 active torsions:
  status: ('A' for Active; 'I' for Inactive)
    1  A    between atoms: C_1  and  C_2
    2  A    between atoms: C_2  and  C_3
    3  A    between atoms: C_3  and  C_4
    4  A    between atoms: C_4  and  C_5
    5  A    between atoms: C_5  and  C_6
    6  A    between atoms: C_5  and  O_8
    7  A    between atoms: C_6  and  C_7
    8  A    between atoms: O_8  and  C_9
    9  A    between atoms: C_9  and  C_11
   10  A    between atoms: C_12  and  C_13
   11  A    between atoms: C_16  and  O_17
   12  A    between atoms: O_17  and  C_18
                            x       y       z     vdW  Elec       q    Type
                         _______ _______ _______ _____ _____    ______ ____

>  <TORSDO>
F 9

$$$$
s3_esm2_f4_ligand
 OpenBabel10092621063D

 20 20  0  0  1  0  0  0  0  0999 V2000
   -2.4090   -6.3630   -2.1010 C   0  0  0  0  0  0  0  0  0  0  0  0
   -3.2940   -6.8150   -1.4270 O   0  0  0  0  0  0  0  0  0  0  0  0
   -2.6230   -5.3310   -3.1120 C   0  0  0  0  0  3  0  0  0  0  0  0
   -1.6370   -4.9440   -3.9110 C   0  0  0  0  0  3  0  0  0  0  0  0
   -1.8370   -4.0630   -5.0830 C   0  0  0  0  0  0  0  0  0  0  0  0
   -3.0970   -3.6360   -5.4510 C   0  0  0  0  0  3  0  0  0  0  0  0
   -3.2570   -2.8410   -6.5710 C   0  0  0  0  0  3  0  0  0  0  0  0
   -2.1840   -2.4710   -7.3240 C   0  0  0  0  0  0  0  0  0  0  0  0
   -0.9230   -2.8910   -6.9540 C   0  0  0  0  0  3  0  0  0  0  0  0
   -0.7600   -3.6820   -5.8360 C   0  0  0  0  0  3  0  0  0  0  0  0
   -2.3820   -1.7020   -8.4180 O   0  0  0  0  0  0  0  0  0  0  0  0
   -1.3350   -1.5290   -9.3580 C   0  0  0  0  0  1  0  0  0  0  0  0
   -1.1270   -6.8010   -1.9910 O   0  0  0  0  0  0  0  0  0  0  0  0
   -0.4770   -6.7220   -0.7350 C   0  0  1  0  0  3  0  0  0  0  0  0
    0.8020   -7.5250   -0.7600 C   0  0  0  0  0  2  0  0  0  0  0  0
    1.3800   -7.7320   -2.1290 C   0  0  0  0  0  1  0  0  0  0  0  0
   -0.1590   -5.2660   -0.4270 C   0  0  0  0  0  2  0  0  0  0  0  0
    1.0880   -5.1370    0.4010 C   0  0  0  0  0  2  0  0  0  0  0  0
    1.2960   -5.9350    2.7600 C   0  0  0  0  0  1  0  0  0  0  0  0
    0.7550   -4.8360    1.8400 C   0  0  0  0  0  2  0  0  0  0  0  0
  1 13  1  0  0  0  0
  1  2  2  0  0  0  0
  3  1  1  0  0  0  0
  4  3  2  0  0  0  0
  5  4  1  0  0  0  0
  6  5  1  0  0  0  0
  7  6  2  0  0  0  0
  8  9  2  0  0  0  0
  8  7  1  0  0  0  0
  9 10  1  0  0  0  0
 10  5  2  0  0  0  0
 11  8  1  0  0  0  0
 12 11  1  0  0  0  0
 13 14  1  0  0  0  0
 14 15  1  6  0  0  0
 14 17  1  0  0  0  0
 16 15  1  0  0  0  0
 17 18  1  0  0  0  0
 18 20  1  0  0  0  0
 20 19  1  0  0  0  0
M  END
>  <MODEL>
3

>  <REMARK>
 VINA RESULT:      -4.9      1.195      2.696
  Name = s3_esm2_f4_ligand
  12 active torsions:
  status: ('A' for Active; 'I' for Inactive)
    1  A    between atoms: C_1  and  C_2
    2  A    between atoms: C_2  and  C_3
    3  A    between atoms: C_3  and  C_4
    4  A    between atoms: C_4  and  C_5
    5  A    between atoms: C_5  and  C_6
    6  A    between atoms: C_5  and  O_8
    7  A    between atoms: C_6  and  C_7
    8  A    between atoms: O_8  and  C_9
    9  A    between atoms: C_9  and  C_11
   10  A    between atoms: C_12  and  C_13
   11  A    between atoms: C_16  and  O_17
   12  A    between atoms: O_17  and  C_18
                            x       y       z     vdW  Elec       q    Type
                         _______ _______ _______ _____ _____    ______ ____

>  <TORSDO>
F 9

$$$$
s3_esm2_f4_ligand
 OpenBabel10092621063D

 20 20  0  0  1  0  0  0  0  0999 V2000
   -1.4530   -5.8770   -5.4660 C   0  0  0  0  0  0  0  0  0  0  0  0
   -1.9450   -6.9390   -5.7330 O   0  0  0  0  0  0  0  0  0  0  0  0
   -0.9810   -5.5310   -4.1280 C   0  0  0  0  0  3  0  0  0  0  0  0
   -1.7840   -5.6260   -3.0760 C   0  0  0  0  0  3  0  0  0  0  0  0
   -1.3140   -5.4930   -1.6790 C   0  0  0  0  0  0  0  0  0  0  0  0
    0.0250   -5.5920   -1.3620 C   0  0  0  0  0  3  0  0  0  0  0  0
    0.4320   -5.4970   -0.0430 C   0  0  0  0  0  3  0  0  0  0  0  0
   -0.4760   -5.3090    0.9560 C   0  0  0  0  0  0  0  0  0  0  0  0
   -1.8140   -5.2030    0.6400 C   0  0  0  0  0  3  0  0  0  0  0  0
   -2.2220   -5.2940   -0.6750 C   0  0  0  0  0  3  0  0  0  0  0  0
   -0.0410   -5.2320    2.2330 O   0  0  0  0  0  0  0  0  0  0  0  0
    1.2500   -4.7130    2.5090 C   0  0  0  0  0  1  0  0  0  0  0  0
   -1.3190   -4.8940   -6.3940 O   0  0  0  0  0  0  0  0  0  0  0  0
   -1.6660   -3.5660   -6.0470 C   0  0  1  0  0  3  0  0  0  0  0  0
   -0.6230   -2.6030   -6.5630 C   0  0  0  0  0  2  0  0  0  0  0  0
    0.4080   -3.2260   -7.4590 C   0  0  0  0  0  1  0  0  0  0  0  0
   -3.0190   -3.2250   -6.6550 C   0  0  0  0  0  2  0  0  0  0  0  0
   -4.1350   -3.4340   -5.6720 C   0  0  0  0  0  2  0  0  0  0  0  0
   -5.1010   -5.5440   -4.7440 C   0  0  0  0  0  1  0  0  0  0  0  0
   -4.9180   -4.6820   -5.9970 C   0  0  0  0  0  2  0  0  0  0  0  0
  1  3  1  0  0  0  0
  2  1  2  0  0  0  0
  3  4  2  0  0  0  0
  4  5  1  0  0  0  0
  5  6  2  0  0  0  0
  5 10  1  0  0  0  0
  6  7  1  0  0  0  0
  7  8  2  0  0  0  0
  8 11  1  0  0  0  0
  9  8  1  0  0  0  0
 10  9  2  0  0  0  0
 11 12  1  0  0  0  0
 13 14  1  0  0  0  0
 13  1  1  0  0  0  0
 14 17  1  6  0  0  0
 15 14  1  0  0  0  0
 16 15  1  0  0  0  0
 17 18  1  0  0  0  0
 20 18  1  0  0  0  0
 20 19  1  0  0  0  0
M  END
>  <MODEL>
4

>  <REMARK>
 VINA RESULT:      -4.8      1.968      6.911
  Name = s3_esm2_f4_ligand
  12 active torsions:
  status: ('A' for Active; 'I' for Inactive)
    1  A    between atoms: C_1  and  C_2
    2  A    between atoms: C_2  and  C_3
    3  A    between atoms: C_3  and  C_4
    4  A    between atoms: C_4  and  C_5
    5  A    between atoms: C_5  and  C_6
    6  A    between atoms: C_5  and  O_8
    7  A    between atoms: C_6  and  C_7
    8  A    between atoms: O_8  and  C_9
    9  A    between atoms: C_9  and  C_11
   10  A    between atoms: C_12  and  C_13
   11  A    between atoms: C_16  and  O_17
   12  A    between atoms: O_17  and  C_18
                            x       y       z     vdW  Elec       q    Type
                         _______ _______ _______ _____ _____    ______ ____

>  <TORSDO>
F 9

$$$$
s3_esm2_f4_ligand
 OpenBabel10092621063D

 20 20  0  0  1  0  0  0  0  0999 V2000
   -2.3690   -5.7490   -2.9990 C   0  0  0  0  0  0  0  0  0  0  0  0
   -3.5190   -5.9740   -3.2630 O   0  0  0  0  0  0  0  0  0  0  0  0
   -1.4990   -4.9420   -3.8500 C   0  0  0  0  0  3  0  0  0  0  0  0
   -1.1960   -5.3330   -5.0810 C   0  0  0  0  0  3  0  0  0  0  0  0
   -0.4970   -4.4710   -6.0600 C   0  0  0  0  0  0  0  0  0  0  0  0
   -0.7910   -3.1280   -6.1700 C   0  0  0  0  0  3  0  0  0  0  0  0
   -0.1460   -2.3540   -7.1170 C   0  0  0  0  0  3  0  0  0  0  0  0
    0.7820   -2.9010   -7.9520 C   0  0  0  0  0  0  0  0  0  0  0  0
    1.0830   -4.2430   -7.8390 C   0  0  0  0  0  3  0  0  0  0  0  0
    0.4430   -5.0170   -6.8930 C   0  0  0  0  0  3  0  0  0  0  0  0
    1.3840   -2.1150   -8.8720 O   0  0  0  0  0  0  0  0  0  0  0  0
    1.4880   -0.7190   -8.6470 C   0  0  0  0  0  1  0  0  0  0  0  0
   -1.7760   -6.2550   -1.8870 O   0  0  0  0  0  0  0  0  0  0  0  0
   -1.1870   -5.3670   -0.9540 C   0  0  1  0  0  3  0  0  0  0  0  0
   -2.2320   -4.8550    0.0090 C   0  0  0  0  0  2  0  0  0  0  0  0
   -2.8890   -5.9190    0.8370 C   0  0  0  0  0  1  0  0  0  0  0  0
   -0.1000   -6.1000   -0.1810 C   0  0  0  0  0  2  0  0  0  0  0  0
    0.8490   -5.1420    0.4800 C   0  0  0  0  0  2  0  0  0  0  0  0
    1.0370   -4.3800    2.8530 C   0  0  0  0  0  1  0  0  0  0  0  0
    1.1520   -5.5700    1.8950 C   0  0  0  0  0  2  0  0  0  0  0  0
  1 13  1  0  0  0  0
  2  1  2  0  0  0  0
  3  1  1  0  0  0  0
  4  3  2  0  0  0  0
  5  4  1  0  0  0  0
  6  5  1  0  0  0  0
  7  6  2  0  0  0  0
  8  9  2  0  0  0  0
  8  7  1  0  0  0  0
  9 10  1  0  0  0  0
 10  5  2  0  0  0  0
 11 12  1  0  0  0  0
 11  8  1  0  0  0  0
 13 14  1  0  0  0  0
 14 17  1  1  0  0  0
 14 15  1  0  0  0  0
 15 16  1  0  0  0  0
 17 18  1  0  0  0  0
 18 20  1  0  0  0  0
 20 19  1  0  0  0  0
M  END
>  <MODEL>
5

>  <REMARK>
 VINA RESULT:      -4.8      1.814      3.184
  Name = s3_esm2_f4_ligand
  12 active torsions:
  status: ('A' for Active; 'I' for Inactive)
    1  A    between atoms: C_1  and  C_2
    2  A    between atoms: C_2  and  C_3
    3  A    between atoms: C_3  and  C_4
    4  A    between atoms: C_4  and  C_5
    5  A    between atoms: C_5  and  C_6
    6  A    between atoms: C_5  and  O_8
    7  A    between atoms: C_6  and  C_7
    8  A    between atoms: O_8  and  C_9
    9  A    between atoms: C_9  and  C_11
   10  A    between atoms: C_12  and  C_13
   11  A    between atoms: C_16  and  O_17
   12  A    between atoms: O_17  and  C_18
                            x       y       z     vdW  Elec       q    Type
                         _______ _______ _______ _____ _____    ______ ____

>  <TORSDO>
F 9

$$$$
s3_esm2_f4_ligand
 OpenBabel10092621063D

 20 20  0  0  1  0  0  0  0  0999 V2000
   -3.0110   -5.1660   -4.4540 C   0  0  0  0  0  0  0  0  0  0  0  0
   -3.6880   -5.9280   -5.0880 O   0  0  0  0  0  0  0  0  0  0  0  0
   -2.5870   -5.4280   -3.0820 C   0  0  0  0  0  3  0  0  0  0  0  0
   -1.3200   -5.2700   -2.7170 C   0  0  0  0  0  3  0  0  0  0  0  0
   -0.8670   -5.3160   -1.3090 C   0  0  0  0  0  0  0  0  0  0  0  0
    0.4520   -5.5640   -0.9890 C   0  0  0  0  0  3  0  0  0  0  0  0
    0.8390   -5.6350    0.3360 C   0  0  0  0  0  3  0  0  0  0  0  0
   -0.0670   -5.4650    1.3400 C   0  0  0  0  0  0  0  0  0  0  0  0
   -1.3850   -5.2100    1.0220 C   0  0  0  0  0  3  0  0  0  0  0  0
   -1.7740   -5.1360   -0.3000 C   0  0  0  0  0  3  0  0  0  0  0  0
    0.3480   -5.5520    2.6230 O   0  0  0  0  0  0  0  0  0  0  0  0
    1.6330   -5.0710    2.9830 C   0  0  0  0  0  1  0  0  0  0  0  0
   -2.6040   -3.9740   -4.9630 O   0  0  0  0  0  0  0  0  0  0  0  0
   -2.1080   -3.9220   -6.2880 C   0  0  1  0  0  3  0  0  0  0  0  0
   -2.9360   -2.9700   -7.1170 C   0  0  0  0  0  2  0  0  0  0  0  0
   -2.1340   -2.0040   -7.9400 C   0  0  0  0  0  1  0  0  0  0  0  0
   -0.6610   -3.4500   -6.2630 C   0  0  0  0  0  2  0  0  0  0  0  0
    0.2590   -4.4530   -6.8980 C   0  0  0  0  0  2  0  0  0  0  0  0
    1.0020   -6.8390   -6.9570 C   0  0  0  0  0  1  0  0  0  0  0  0
    0.0440   -5.8290   -6.3170 C   0  0  0  0  0  2  0  0  0  0  0  0
  1  3  1  0  0  0  0
  2  1  2  0  0  0  0
  3  4  2  0  0  0  0
  4  5  1  0  0  0  0
  5  6  2  0  0  0  0
  5 10  1  0  0  0  0
  6  7  1  0  0  0  0
  7  8  2  0  0  0  0
  8 11  1  0  0  0  0
  9  8  1  0  0  0  0
 10  9  2  0  0  0  0
 11 12  1  0  0  0  0
 13  1  1  0  0  0  0
 14 15  1  6  0  0  0
 14 17  1  0  0  0  0
 14 13  1  0  0  0  0
 16 15  1  0  0  0  0
 18 20  1  0  0  0  0
 18 17  1  0  0  0  0
 19 20  1  0  0  0  0
M  END
>  <MODEL>
6

>  <REMARK>
 VINA RESULT:      -4.7      2.184      7.524
  Name = s3_esm2_f4_ligand
  12 active torsions:
  status: ('A' for Active; 'I' for Inactive)
    1  A    between atoms: C_1  and  C_2
    2  A    between atoms: C_2  and  C_3
    3  A    between atoms: C_3  and  C_4
    4  A    between atoms: C_4  and  C_5
    5  A    between atoms: C_5  and  C_6
    6  A    between atoms: C_5  and  O_8
    7  A    between atoms: C_6  and  C_7
    8  A    between atoms: O_8  and  C_9
    9  A    between atoms: C_9  and  C_11
   10  A    between atoms: C_12  and  C_13
   11  A    between atoms: C_16  and  O_17
   12  A    between atoms: O_17  and  C_18
                            x       y       z     vdW  Elec       q    Type
                         _______ _______ _______ _____ _____    ______ ____

>  <TORSDO>
F 9

$$$$
s3_esm2_f4_ligand
 OpenBabel10092621063D

 20 20  0  0  1  0  0  0  0  0999 V2000
   -3.0820   -5.2590   -4.9200 C   0  0  0  0  0  0  0  0  0  0  0  0
   -4.2010   -5.6960   -4.9270 O   0  0  0  0  0  0  0  0  0  0  0  0
   -2.3550   -4.9470   -3.6930 C   0  0  0  0  0  3  0  0  0  0  0  0
   -2.0800   -5.8940   -2.8030 C   0  0  0  0  0  3  0  0  0  0  0  0
   -1.1750   -5.6890   -1.6510 C   0  0  0  0  0  0  0  0  0  0  0  0
   -1.6110   -5.0660   -0.5000 C   0  0  0  0  0  3  0  0  0  0  0  0
   -0.7330   -4.8580    0.5480 C   0  0  0  0  0  3  0  0  0  0  0  0
    0.5660   -5.2590    0.4610 C   0  0  0  0  0  0  0  0  0  0  0  0
    1.0030   -5.8880   -0.6860 C   0  0  0  0  0  3  0  0  0  0  0  0
    0.1280   -6.0990   -1.7330 C   0  0  0  0  0  3  0  0  0  0  0  0
    1.3970   -5.0290    1.5020 O   0  0  0  0  0  0  0  0  0  0  0  0
    0.8670   -4.5970    2.7450 C   0  0  0  0  0  1  0  0  0  0  0  0
   -2.4080   -4.9950   -6.0690 O   0  0  0  0  0  0  0  0  0  0  0  0
   -1.1660   -4.3190   -6.0000 C   0  0  1  0  0  3  0  0  0  0  0  0
   -0.0950   -5.1260   -6.6950 C   0  0  0  0  0  2  0  0  0  0  0  0
    0.2170   -6.4400   -6.0400 C   0  0  0  0  0  1  0  0  0  0  0  0
   -1.2960   -2.9610   -6.6740 C   0  0  0  0  0  2  0  0  0  0  0  0
   -0.0030   -2.1970   -6.6330 C   0  0  0  0  0  2  0  0  0  0  0  0
    1.4600   -0.5980   -7.8780 C   0  0  0  0  0  1  0  0  0  0  0  0
    0.3410   -1.6390   -7.9910 C   0  0  0  0  0  2  0  0  0  0  0  0
  1  3  1  0  0  0  0
  2  1  2  0  0  0  0
  3  4  2  0  0  0  0
  4  5  1  0  0  0  0
  5  6  1  0  0  0  0
  6  7  2  0  0  0  0
  8  7  1  0  0  0  0
  8 11  1  0  0  0  0
  9  8  2  0  0  0  0
 10  5  2  0  0  0  0
 10  9  1  0  0  0  0
 11 12  1  0  0  0  0
 13 14  1  0  0  0  0
 13  1  1  0  0  0  0
 14 15  1  6  0  0  0
 15 16  1  0  0  0  0
 17 18  1  0  0  0  0
 17 14  1  0  0  0  0
 20 19  1  0  0  0  0
 20 18  1  0  0  0  0
M  END
>  <MODEL>
7

>  <REMARK>
 VINA RESULT:      -4.7      2.164      7.474
  Name = s3_esm2_f4_ligand
  12 active torsions:
  status: ('A' for Active; 'I' for Inactive)
    1  A    between atoms: C_1  and  C_2
    2  A    between atoms: C_2  and  C_3
    3  A    between atoms: C_3  and  C_4
    4  A    between atoms: C_4  and  C_5
    5  A    between atoms: C_5  and  C_6
    6  A    between atoms: C_5  and  O_8
    7  A    between atoms: C_6  and  C_7
    8  A    between atoms: O_8  and  C_9
    9  A    between atoms: C_9  and  C_11
   10  A    between atoms: C_12  and  C_13
   11  A    between atoms: C_16  and  O_17
   12  A    between atoms: O_17  and  C_18
                            x       y       z     vdW  Elec       q    Type
                         _______ _______ _______ _____ _____    ______ ____

>  <TORSDO>
F 9

$$$$
s3_esm2_f4_ligand
 OpenBabel10092621063D

 20 20  0  0  1  0  0  0  0  0999 V2000
   -1.6560   -6.0990   -5.0270 C   0  0  0  0  0  0  0  0  0  0  0  0
   -1.5910   -7.0210   -5.7940 O   0  0  0  0  0  0  0  0  0  0  0  0
   -1.0690   -6.1300   -3.6910 C   0  0  0  0  0  3  0  0  0  0  0  0
   -1.3690   -5.2010   -2.7920 C   0  0  0  0  0  3  0  0  0  0  0  0
   -0.9770   -5.2890   -1.3680 C   0  0  0  0  0  0  0  0  0  0  0  0
    0.3310   -5.5320   -0.9990 C   0  0  0  0  0  3  0  0  0  0  0  0
    0.6610   -5.6440    0.3390 C   0  0  0  0  0  3  0  0  0  0  0  0
   -0.2900   -5.5180    1.3070 C   0  0  0  0  0  0  0  0  0  0  0  0
   -1.5960   -5.2690    0.9410 C   0  0  0  0  0  3  0  0  0  0  0  0
   -1.9290   -5.1540   -0.3930 C   0  0  0  0  0  3  0  0  0  0  0  0
    0.0710   -5.6440    2.6030 O   0  0  0  0  0  0  0  0  0  0  0  0
    0.9640   -4.7060    3.1820 C   0  0  0  0  0  1  0  0  0  0  0  0
   -2.3110   -4.9510   -5.3390 O   0  0  0  0  0  0  0  0  0  0  0  0
   -1.9460   -4.2450   -6.5110 C   0  0  1  0  0  3  0  0  0  0  0  0
   -2.9600   -3.1660   -6.8070 C   0  0  0  0  0  2  0  0  0  0  0  0
   -4.0400   -3.0270   -5.7730 C   0  0  0  0  0  1  0  0  0  0  0  0
   -0.5760   -3.6130   -6.3080 C   0  0  0  0  0  2  0  0  0  0  0  0
    0.4310   -4.1530   -7.2840 C   0  0  0  0  0  2  0  0  0  0  0  0
    0.5490   -1.6780   -7.6120 C   0  0  0  0  0  1  0  0  0  0  0  0
    1.0380   -3.0430   -8.1050 C   0  0  0  0  0  2  0  0  0  0  0  0
  1  3  1  0  0  0  0
  2  1  2  0  0  0  0
  3  4  2  0  0  0  0
  4  5  1  0  0  0  0
  5  6  2  0  0  0  0
  5 10  1  0  0  0  0
  6  7  1  0  0  0  0
  7  8  2  0  0  0  0
  8 11  1  0  0  0  0
  9  8  1  0  0  0  0
 10  9  2  0  0  0  0
 11 12  1  0  0  0  0
 13  1  1  0  0  0  0
 14 15  1  1  0  0  0
 14 17  1  0  0  0  0
 14 13  1  0  0  0  0
 15 16  1  0  0  0  0
 18 17  1  0  0  0  0
 20 19  1  0  0  0  0
 20 18  1  0  0  0  0
M  END
>  <MODEL>
8

>  <REMARK>
 VINA RESULT:      -4.6      2.040      7.608
  Name = s3_esm2_f4_ligand
  12 active torsions:
  status: ('A' for Active; 'I' for Inactive)
    1  A    between atoms: C_1  and  C_2
    2  A    between atoms: C_2  and  C_3
    3  A    between atoms: C_3  and  C_4
    4  A    between atoms: C_4  and  C_5
    5  A    between atoms: C_5  and  C_6
    6  A    between atoms: C_5  and  O_8
    7  A    between atoms: C_6  and  C_7
    8  A    between atoms: O_8  and  C_9
    9  A    between atoms: C_9  and  C_11
   10  A    between atoms: C_12  and  C_13
   11  A    between atoms: C_16  and  O_17
   12  A    between atoms: O_17  and  C_18
                            x       y       z     vdW  Elec       q    Type
                         _______ _______ _______ _____ _____    ______ ____

>  <TORSDO>
F 9

$$$$
s3_esm2_f4_ligand
 OpenBabel10092621063D

 20 20  0  0  1  0  0  0  0  0999 V2000
   -3.6040   -6.6810   -3.9330 C   0  0  0  0  0  0  0  0  0  0  0  0
   -4.1800   -7.7100   -4.1580 O   0  0  0  0  0  0  0  0  0  0  0  0
   -2.4800   -6.5830   -3.0060 C   0  0  0  0  0  3  0  0  0  0  0  0
   -2.3470   -5.5340   -2.2030 C   0  0  0  0  0  3  0  0  0  0  0  0
   -1.3570   -5.4710   -1.1050 C   0  0  0  0  0  0  0  0  0  0  0  0
   -1.7410   -5.1870    0.1890 C   0  0  0  0  0  3  0  0  0  0  0  0
   -0.7890   -5.1010    1.1890 C   0  0  0  0  0  3  0  0  0  0  0  0
    0.5320   -5.2910    0.9150 C   0  0  0  0  0  0  0  0  0  0  0  0
    0.9170   -5.5810   -0.3780 C   0  0  0  0  0  3  0  0  0  0  0  0
   -0.0300   -5.6700   -1.3770 C   0  0  0  0  0  3  0  0  0  0  0  0
    1.4330   -5.1880    1.9160 O   0  0  0  0  0  0  0  0  0  0  0  0
    1.1880   -4.3030    2.9980 C   0  0  0  0  0  1  0  0  0  0  0  0
   -3.9750   -5.5080   -4.5110 O   0  0  0  0  0  0  0  0  0  0  0  0
   -3.3470   -5.1030   -5.7130 C   0  0  1  0  0  3  0  0  0  0  0  0
   -4.3100   -5.2240   -6.8700 C   0  0  0  0  0  2  0  0  0  0  0  0
   -3.6640   -5.1840   -8.2240 C   0  0  0  0  0  1  0  0  0  0  0  0
   -2.8930   -3.6560   -5.5780 C   0  0  0  0  0  2  0  0  0  0  0  0
   -1.4210   -3.5640   -5.2910 C   0  0  0  0  0  2  0  0  0  0  0  0
    0.2060   -4.5190   -6.9290 C   0  0  0  0  0  1  0  0  0  0  0  0
   -0.7030   -4.8150   -5.7320 C   0  0  0  0  0  2  0  0  0  0  0  0
  1  3  1  0  0  0  0
  2  1  2  0  0  0  0
  3  4  2  0  0  0  0
  4  5  1  0  0  0  0
  5  6  1  0  0  0  0
  6  7  2  0  0  0  0
  8  7  1  0  0  0  0
  8 11  1  0  0  0  0
  9  8  2  0  0  0  0
 10  5  2  0  0  0  0
 10  9  1  0  0  0  0
 11 12  1  0  0  0  0
 13  1  1  0  0  0  0
 14 15  1  6  0  0  0
 14 17  1  0  0  0  0
 14 13  1  0  0  0  0
 16 15  1  0  0  0  0
 17 18  1  0  0  0  0
 19 20  1  0  0  0  0
 20 18  1  0  0  0  0
M  END
>  <MODEL>
9

>  <REMARK>
 VINA RESULT:      -4.6      2.402      7.370
  Name = s3_esm2_f4_ligand
  12 active torsions:
  status: ('A' for Active; 'I' for Inactive)
    1  A    between atoms: C_1  and  C_2
    2  A    between atoms: C_2  and  C_3
    3  A    between atoms: C_3  and  C_4
    4  A    between atoms: C_4  and  C_5
    5  A    between atoms: C_5  and  C_6
    6  A    between atoms: C_5  and  O_8
    7  A    between atoms: C_6  and  C_7
    8  A    between atoms: O_8  and  C_9
    9  A    between atoms: C_9  and  C_11
   10  A    between atoms: C_12  and  C_13
   11  A    between atoms: C_16  and  O_17
   12  A    between atoms: O_17  and  C_18
                            x       y       z     vdW  Elec       q    Type
                         _______ _______ _______ _____ _____    ______ ____

>  <TORSDO>
F 9

$$$$
