ox2_shuffle_ligand
     RDKit          3D

 29 30  0  0  0  0  0  0  0  0999 V2000
   -1.5809    6.5599    5.6334 C   0  0  0  0  0  0  0  0  0  0  0  0
   -2.8256    6.3249    6.2400 O   0  0  0  0  0  0  0  0  0  0  0  0
   -3.0681    5.1322    6.8737 C   0  0  0  0  0  0  0  0  0  0  0  0
   -4.0461    5.1185    7.8560 C   0  0  0  0  0  0  0  0  0  0  0  0
   -4.3381    3.9564    8.5377 C   0  0  0  0  0  0  0  0  0  0  0  0
   -3.6587    2.7815    8.2424 C   0  0  0  0  0  0  0  0  0  0  0  0
   -3.9759    1.5095    8.9836 C   0  0  0  0  0  0  0  0  0  0  0  0
   -3.3552    0.5011    8.7330 O   0  0  0  0  0  0  0  0  0  0  0  0
   -5.0514    1.4864    9.9970 C   0  0  0  0  0  0  0  0  0  0  0  0
   -4.8887    2.1334   11.2163 C   0  0  0  0  0  0  0  0  0  0  0  0
   -5.9031    2.0897   12.1609 C   0  0  0  0  0  0  0  0  0  0  0  0
   -7.0859    1.4076   11.8840 C   0  0  0  0  0  0  0  0  0  0  0  0
   -7.2436    0.7482   10.6711 C   0  0  0  0  0  0  0  0  0  0  0  0
   -6.2171    0.7748    9.7245 C   0  0  0  0  0  0  0  0  0  0  0  0
   -2.6749    2.7874    7.2426 C   0  0  0  0  0  0  0  0  0  0  0  0
   -2.0068    1.6382    6.9442 O   0  0  0  0  0  0  0  0  0  0  0  0
   -2.3879    3.9682    6.5697 C   0  0  0  0  0  0  0  0  0  0  0  0
   -1.3617    7.6377    5.6519 H   0  0  0  0  0  0  0  0  0  0  0  0
   -0.7973    6.0169    6.1821 H   0  0  0  0  0  0  0  0  0  0  0  0
   -1.6087    6.2092    4.5912 H   0  0  0  0  0  0  0  0  0  0  0  0
   -4.5937    6.0425    8.0934 H   0  0  0  0  0  0  0  0  0  0  0  0
   -5.1125    3.9597    9.3190 H   0  0  0  0  0  0  0  0  0  0  0  0
   -3.9578    2.6786   11.4315 H   0  0  0  0  0  0  0  0  0  0  0  0
   -5.7737    2.5941   13.1299 H   0  0  0  0  0  0  0  0  0  0  0  0
   -7.8967    1.3909   12.6272 H   0  0  0  0  0  0  0  0  0  0  0  0
   -8.1761    0.2057   10.4567 H   0  0  0  0  0  0  0  0  0  0  0  0
   -6.3285    0.2378    8.7711 H   0  0  0  0  0  0  0  0  0  0  0  0
   -1.3118    1.6386    6.2392 H   0  0  0  0  0  0  0  0  0  0  0  0
   -1.6133    3.9769    5.7888 H   0  0  0  0  0  0  0  0  0  0  0  0
  2  1  1  0
  3  2  1  0
  4  3  1  0
  5  4  2  0
  6  5  1  0
  7  6  1  0
  8  7  2  0
  9  7  1  0
 10  9  2  0
 11 10  1  0
 12 11  2  0
 13 12  1  0
 14 13  2  0
 14  9  1  0
 15  6  2  0
 16 15  1  0
 17  3  2  0
 17 15  1  0
  1 18  1  0
  1 19  1  0
  1 20  1  0
  4 21  1  0
  5 22  1  0
 10 23  1  0
 11 24  1  0
 12 25  1  0
 13 26  1  0
 14 27  1  0
 16 28  1  0
 17 29  1  0
M  END
$$$$
