ox2_shuffle_ligand
 OpenBabel10092621213D

 18 19  0  0  0  0  0  0  0  0999 V2000
    6.5790    0.7630    8.4580 C   0  0  0  0  0  0  0  0  0  0  0  0
    6.5900    2.0820    8.8830 C   0  0  0  0  0  3  0  0  0  0  0  0
    6.4560    3.1110    7.9740 C   0  0  0  0  0  3  0  0  0  0  0  0
    6.3140    2.8350    6.6190 C   0  0  0  0  0  0  0  0  0  0  0  0
    6.3110    1.5020    6.1840 C   0  0  0  0  0  0  0  0  0  0  0  0
    6.4410    0.4770    7.1130 C   0  0  0  0  0  3  0  0  0  0  0  0
    5.7810   -1.2590    9.4910 C   0  0  0  0  0  1  0  0  0  0  0  0
    6.7120   -0.2100    9.4180 O   0  0  0  0  0  0  0  0  0  0  0  0
    6.1680    3.9560    5.6250 C   0  0  0  0  0  0  0  0  0  0  0  0
    6.9270    4.0220    4.6830 O   0  0  0  0  0  0  0  0  0  0  0  0
    5.1200    4.9810    5.8060 C   0  0  0  0  0  0  0  0  0  0  0  0
    3.8090    4.6120    6.0790 C   0  0  0  0  0  3  0  0  0  0  0  0
    2.8340    5.5870    6.2330 C   0  0  0  0  0  3  0  0  0  0  0  0
    3.1720    6.9340    6.1240 C   0  0  0  0  0  3  0  0  0  0  0  0
    4.4800    7.3050    5.8360 C   0  0  0  0  0  3  0  0  0  0  0  0
    5.4600    6.3240    5.6630 C   0  0  0  0  0  3  0  0  0  0  0  0
    6.1770    1.2240    4.8580 O   0  0  0  0  0  0  0  0  0  0  0  0
    5.2810    1.0360    4.4800 H   0  0  0  0  0  0  0  0  0  0  0  0
  1  2  1  0  0  0  0
  1  8  1  0  0  0  0
  3  2  2  0  0  0  0
  4  3  1  0  0  0  0
  5  4  2  0  0  0  0
  5  6  1  0  0  0  0
  6  1  2  0  0  0  0
  8  7  1  0  0  0  0
  9 11  1  0  0  0  0
  9  4  1  0  0  0  0
 10  9  2  0  0  0  0
 11 12  1  0  0  0  0
 12 13  2  0  0  0  0
 14 13  1  0  0  0  0
 15 14  2  0  0  0  0
 16 11  2  0  0  0  0
 16 15  1  0  0  0  0
 17  5  1  0  0  0  0
 18 17  1  0  0  0  0
M  END
>  <MODEL>
1

>  <REMARK>
 VINA RESULT:      -3.6      0.000      0.000
  Name = ox2_shuffle_ligand
  5 active torsions:
  status: ('A' for Active; 'I' for Inactive)
    1  A    between atoms: C_1  and  O_2
    2  A    between atoms: O_2  and  C_3
    3  A    between atoms: C_6  and  C_7
    4  A    between atoms: C_7  and  C_9
    5  A    between atoms: C_15  and  O_16
                            x       y       z     vdW  Elec       q    Type
                         _______ _______ _______ _____ _____    ______ ____

>  <TORSDO>
F 4

$$$$
ox2_shuffle_ligand
 OpenBabel10092621213D

 18 19  0  0  0  0  0  0  0  0999 V2000
    4.8980    3.7620    6.0030 C   0  0  0  0  0  0  0  0  0  0  0  0
    4.2380    4.8020    5.3680 C   0  0  0  0  0  3  0  0  0  0  0  0
    3.1960    5.4550    5.9940 C   0  0  0  0  0  3  0  0  0  0  0  0
    2.7920    5.0710    7.2670 C   0  0  0  0  0  0  0  0  0  0  0  0
    3.4520    4.0130    7.9090 C   0  0  0  0  0  0  0  0  0  0  0  0
    4.5030    3.3700    7.2680 C   0  0  0  0  0  3  0  0  0  0  0  0
    6.2350    1.8110    5.5600 C   0  0  0  0  0  1  0  0  0  0  0  0
    5.9290    3.1610    5.3230 O   0  0  0  0  0  0  0  0  0  0  0  0
    1.6550    5.7810    7.9520 C   0  0  0  0  0  0  0  0  0  0  0  0
    1.8450    6.3210    9.0200 O   0  0  0  0  0  0  0  0  0  0  0  0
    0.3120    5.8030    7.3390 C   0  0  0  0  0  0  0  0  0  0  0  0
   -0.1690    6.9550    6.7290 C   0  0  0  0  0  3  0  0  0  0  0  0
   -1.4380    6.9630    6.1700 C   0  0  0  0  0  3  0  0  0  0  0  0
   -2.2250    5.8130    6.2100 C   0  0  0  0  0  3  0  0  0  0  0  0
   -1.7510    4.6640    6.8320 C   0  0  0  0  0  3  0  0  0  0  0  0
   -0.4800    4.6600    7.4120 C   0  0  0  0  0  3  0  0  0  0  0  0
    3.0600    3.6280    9.1550 O   0  0  0  0  0  0  0  0  0  0  0  0
    2.7320    2.7070    9.3080 H   0  0  0  0  0  0  0  0  0  0  0  0
  1  6  1  0  0  0  0
  2  3  1  0  0  0  0
  2  1  2  0  0  0  0
  3  4  2  0  0  0  0
  4  5  1  0  0  0  0
  4  9  1  0  0  0  0
  5 17  1  0  0  0  0
  6  5  2  0  0  0  0
  8  7  1  0  0  0  0
  8  1  1  0  0  0  0
  9 10  2  0  0  0  0
 11 16  1  0  0  0  0
 11  9  1  0  0  0  0
 12 11  2  0  0  0  0
 13 14  2  0  0  0  0
 13 12  1  0  0  0  0
 14 15  1  0  0  0  0
 15 16  2  0  0  0  0
 17 18  1  0  0  0  0
M  END
>  <MODEL>
2

>  <REMARK>
 VINA RESULT:      -3.6      3.397      5.223
  Name = ox2_shuffle_ligand
  5 active torsions:
  status: ('A' for Active; 'I' for Inactive)
    1  A    between atoms: C_1  and  O_2
    2  A    between atoms: O_2  and  C_3
    3  A    between atoms: C_6  and  C_7
    4  A    between atoms: C_7  and  C_9
    5  A    between atoms: C_15  and  O_16
                            x       y       z     vdW  Elec       q    Type
                         _______ _______ _______ _____ _____    ______ ____

>  <TORSDO>
F 4

$$$$
ox2_shuffle_ligand
 OpenBabel10092621213D

 18 19  0  0  0  0  0  0  0  0999 V2000
   -5.5350    2.8720    8.9750 C   0  0  0  0  0  0  0  0  0  0  0  0
   -5.3180    4.2400    9.0250 C   0  0  0  0  0  3  0  0  0  0  0  0
   -4.1860    4.7900    8.4590 C   0  0  0  0  0  3  0  0  0  0  0  0
   -3.2480    3.9760    7.8370 C   0  0  0  0  0  0  0  0  0  0  0  0
   -3.4590    2.5910    7.7910 C   0  0  0  0  0  0  0  0  0  0  0  0
   -4.6070    2.0530    8.3610 C   0  0  0  0  0  3  0  0  0  0  0  0
   -7.4970    1.4830    8.8590 C   0  0  0  0  0  1  0  0  0  0  0  0
   -6.6840    2.3940    9.5540 O   0  0  0  0  0  0  0  0  0  0  0  0
   -2.0120    4.5740    7.2190 C   0  0  0  0  0  0  0  0  0  0  0  0
   -0.9200    4.2010    7.5860 O   0  0  0  0  0  0  0  0  0  0  0  0
   -2.1280    5.6230    6.1850 C   0  0  0  0  0  0  0  0  0  0  0  0
   -1.5600    6.8760    6.3820 C   0  0  0  0  0  3  0  0  0  0  0  0
   -1.6890    7.8540    5.4070 C   0  0  0  0  0  3  0  0  0  0  0  0
   -2.3770    7.5760    4.2280 C   0  0  0  0  0  3  0  0  0  0  0  0
   -2.9580    6.3280    4.0350 C   0  0  0  0  0  3  0  0  0  0  0  0
   -2.8450    5.3480    5.0230 C   0  0  0  0  0  3  0  0  0  0  0  0
   -2.5420    1.7860    7.1870 O   0  0  0  0  0  0  0  0  0  0  0  0
   -1.5890    1.8340    7.4530 H   0  0  0  0  0  0  0  0  0  0  0  0
  1  2  1  0  0  0  0
  1  8  1  0  0  0  0
  3  2  2  0  0  0  0
  4  3  1  0  0  0  0
  5  4  2  0  0  0  0
  5  6  1  0  0  0  0
  6  1  2  0  0  0  0
  7  8  1  0  0  0  0
  9 10  2  0  0  0  0
  9  4  1  0  0  0  0
 11 12  1  0  0  0  0
 11  9  1  0  0  0  0
 13 12  2  0  0  0  0
 14 13  1  0  0  0  0
 15 14  2  0  0  0  0
 15 16  1  0  0  0  0
 16 11  2  0  0  0  0
 17 18  1  0  0  0  0
 17  5  1  0  0  0  0
M  END
>  <MODEL>
3

>  <REMARK>
 VINA RESULT:      -3.5      7.999      9.714
  Name = ox2_shuffle_ligand
  5 active torsions:
  status: ('A' for Active; 'I' for Inactive)
    1  A    between atoms: C_1  and  O_2
    2  A    between atoms: O_2  and  C_3
    3  A    between atoms: C_6  and  C_7
    4  A    between atoms: C_7  and  C_9
    5  A    between atoms: C_15  and  O_16
                            x       y       z     vdW  Elec       q    Type
                         _______ _______ _______ _____ _____    ______ ____

>  <TORSDO>
F 4

$$$$
ox2_shuffle_ligand
 OpenBabel10092621213D

 18 19  0  0  0  0  0  0  0  0999 V2000
   -4.1700    1.7180    9.0040 C   0  0  0  0  0  0  0  0  0  0  0  0
   -5.0540    2.7790    9.1160 C   0  0  0  0  0  3  0  0  0  0  0  0
   -4.6730    4.0520    8.7440 C   0  0  0  0  0  3  0  0  0  0  0  0
   -3.3920    4.2850    8.2590 C   0  0  0  0  0  0  0  0  0  0  0  0
   -2.4910    3.2170    8.1520 C   0  0  0  0  0  0  0  0  0  0  0  0
   -2.8930    1.9400    8.5240 C   0  0  0  0  0  3  0  0  0  0  0  0
   -3.7330   -0.4390    9.9770 C   0  0  0  0  0  1  0  0  0  0  0  0
   -4.6180    0.4790    9.3870 O   0  0  0  0  0  0  0  0  0  0  0  0
   -2.9730    5.6730    7.8520 C   0  0  0  0  0  0  0  0  0  0  0  0
   -2.3020    6.3390    8.6090 O   0  0  0  0  0  0  0  0  0  0  0  0
   -3.3930    6.2280    6.5490 C   0  0  0  0  0  0  0  0  0  0  0  0
   -2.6930    5.9180    5.3900 C   0  0  0  0  0  3  0  0  0  0  0  0
   -3.0930    6.4580    4.1760 C   0  0  0  0  0  3  0  0  0  0  0  0
   -4.2010    7.3000    4.1190 C   0  0  0  0  0  3  0  0  0  0  0  0
   -4.8940    7.6220    5.2800 C   0  0  0  0  0  3  0  0  0  0  0  0
   -4.4820    7.0940    6.5060 C   0  0  0  0  0  3  0  0  0  0  0  0
   -1.2320    3.4380    7.6800 O   0  0  0  0  0  0  0  0  0  0  0  0
   -0.4850    2.8570    7.9710 H   0  0  0  0  0  0  0  0  0  0  0  0
  1  2  1  0  0  0  0
  1  8  1  0  0  0  0
  3  2  2  0  0  0  0
  4  3  1  0  0  0  0
  5  4  2  0  0  0  0
  5  6  1  0  0  0  0
  6  1  2  0  0  0  0
  8  7  1  0  0  0  0
  9  4  1  0  0  0  0
  9 10  2  0  0  0  0
 11  9  1  0  0  0  0
 12 11  2  0  0  0  0
 13 12  1  0  0  0  0
 14 13  2  0  0  0  0
 14 15  1  0  0  0  0
 15 16  2  0  0  0  0
 16 11  1  0  0  0  0
 17 18  1  0  0  0  0
 17  5  1  0  0  0  0
M  END
>  <MODEL>
4

>  <REMARK>
 VINA RESULT:      -3.4      8.370      9.531
  Name = ox2_shuffle_ligand
  5 active torsions:
  status: ('A' for Active; 'I' for Inactive)
    1  A    between atoms: C_1  and  O_2
    2  A    between atoms: O_2  and  C_3
    3  A    between atoms: C_6  and  C_7
    4  A    between atoms: C_7  and  C_9
    5  A    between atoms: C_15  and  O_16
                            x       y       z     vdW  Elec       q    Type
                         _______ _______ _______ _____ _____    ______ ____

>  <TORSDO>
F 4

$$$$
ox2_shuffle_ligand
 OpenBabel10092621213D

 18 19  0  0  0  0  0  0  0  0999 V2000
   -2.9530    1.5620   10.1460 C   0  0  0  0  0  0  0  0  0  0  0  0
   -2.3330    2.7150   10.6010 C   0  0  0  0  0  3  0  0  0  0  0  0
   -1.9300    3.6900    9.7130 C   0  0  0  0  0  3  0  0  0  0  0  0
   -2.1340    3.5240    8.3490 C   0  0  0  0  0  0  0  0  0  0  0  0
   -2.7520    2.3550    7.8830 C   0  0  0  0  0  0  0  0  0  0  0  0
   -3.1590    1.3850    8.7910 C   0  0  0  0  0  3  0  0  0  0  0  0
   -3.2980   -0.7340   10.7770 C   0  0  0  0  0  1  0  0  0  0  0  0
   -3.3320    0.6360   11.0850 O   0  0  0  0  0  0  0  0  0  0  0  0
   -1.6940    4.5870    7.3780 C   0  0  0  0  0  0  0  0  0  0  0  0
   -0.5190    4.7020    7.1100 O   0  0  0  0  0  0  0  0  0  0  0  0
   -2.6850    5.4980    6.7700 C   0  0  0  0  0  0  0  0  0  0  0  0
   -2.5620    5.8950    5.4440 C   0  0  0  0  0  3  0  0  0  0  0  0
   -3.4940    6.7610    4.8920 C   0  0  0  0  0  3  0  0  0  0  0  0
   -4.5580    7.2230    5.6640 C   0  0  0  0  0  3  0  0  0  0  0  0
   -4.6750    6.8390    6.9940 C   0  0  0  0  0  3  0  0  0  0  0  0
   -3.7280    5.9810    7.5570 C   0  0  0  0  0  3  0  0  0  0  0  0
   -2.9530    2.1830    6.5470 O   0  0  0  0  0  0  0  0  0  0  0  0
   -3.3790    2.9000    6.0140 H   0  0  0  0  0  0  0  0  0  0  0  0
  1  2  1  0  0  0  0
  1  8  1  0  0  0  0
  3  2  2  0  0  0  0
  4  3  1  0  0  0  0
  5  4  2  0  0  0  0
  5  6  1  0  0  0  0
  6  1  2  0  0  0  0
  7  8  1  0  0  0  0
  9  4  1  0  0  0  0
 10  9  2  0  0  0  0
 11  9  1  0  0  0  0
 11 16  1  0  0  0  0
 12 11  2  0  0  0  0
 13 12  1  0  0  0  0
 13 14  2  0  0  0  0
 14 15  1  0  0  0  0
 15 16  2  0  0  0  0
 17  5  1  0  0  0  0
 18 17  1  0  0  0  0
M  END
>  <MODEL>
5

>  <REMARK>
 VINA RESULT:      -3.3      7.846      8.717
  Name = ox2_shuffle_ligand
  5 active torsions:
  status: ('A' for Active; 'I' for Inactive)
    1  A    between atoms: C_1  and  O_2
    2  A    between atoms: O_2  and  C_3
    3  A    between atoms: C_6  and  C_7
    4  A    between atoms: C_7  and  C_9
    5  A    between atoms: C_15  and  O_16
                            x       y       z     vdW  Elec       q    Type
                         _______ _______ _______ _____ _____    ______ ____

>  <TORSDO>
F 4

$$$$
ox2_shuffle_ligand
 OpenBabel10092621213D

 18 19  0  0  0  0  0  0  0  0999 V2000
   -2.6330    5.3100    6.7540 C   0  0  0  0  0  0  0  0  0  0  0  0
   -3.5810    5.7670    7.6560 C   0  0  0  0  0  3  0  0  0  0  0  0
   -4.2190    4.8890    8.5070 C   0  0  0  0  0  3  0  0  0  0  0  0
   -3.9230    3.5320    8.4640 C   0  0  0  0  0  0  0  0  0  0  0  0
   -2.9710    3.0640    7.5470 C   0  0  0  0  0  0  0  0  0  0  0  0
   -2.3330    3.9620    6.7020 C   0  0  0  0  0  3  0  0  0  0  0  0
   -2.8070    6.9870    5.0380 C   0  0  0  0  0  1  0  0  0  0  0  0
   -2.0340    6.2400    5.9420 O   0  0  0  0  0  0  0  0  0  0  0  0
   -4.6190    2.5710    9.3900 C   0  0  0  0  0  0  0  0  0  0  0  0
   -4.0090    2.0910   10.3210 O   0  0  0  0  0  0  0  0  0  0  0  0
   -6.0290    2.1970    9.1570 C   0  0  0  0  0  0  0  0  0  0  0  0
   -6.3480    1.0050    8.5180 C   0  0  0  0  0  3  0  0  0  0  0  0
   -7.6770    0.6760    8.2950 C   0  0  0  0  0  3  0  0  0  0  0  0
   -8.6890    1.5340    8.7200 C   0  0  0  0  0  3  0  0  0  0  0  0
   -8.3710    2.7330    9.3460 C   0  0  0  0  0  3  0  0  0  0  0  0
   -7.0330    3.0750    9.5560 C   0  0  0  0  0  3  0  0  0  0  0  0
   -2.6780    1.7340    7.4960 O   0  0  0  0  0  0  0  0  0  0  0  0
   -2.6570    1.2000    8.3290 H   0  0  0  0  0  0  0  0  0  0  0  0
  1  2  1  0  0  0  0
  2  3  2  0  0  0  0
  4  3  1  0  0  0  0
  4  9  1  0  0  0  0
  5  4  2  0  0  0  0
  6  1  2  0  0  0  0
  6  5  1  0  0  0  0
  7  8  1  0  0  0  0
  8  1  1  0  0  0  0
  9 10  2  0  0  0  0
 11  9  1  0  0  0  0
 11 16  1  0  0  0  0
 12 11  2  0  0  0  0
 13 12  1  0  0  0  0
 13 14  2  0  0  0  0
 14 15  1  0  0  0  0
 15 16  2  0  0  0  0
 17  5  1  0  0  0  0
 17 18  1  0  0  0  0
M  END
>  <MODEL>
6

>  <REMARK>
 VINA RESULT:      -3.2      9.139     11.527
  Name = ox2_shuffle_ligand
  5 active torsions:
  status: ('A' for Active; 'I' for Inactive)
    1  A    between atoms: C_1  and  O_2
    2  A    between atoms: O_2  and  C_3
    3  A    between atoms: C_6  and  C_7
    4  A    between atoms: C_7  and  C_9
    5  A    between atoms: C_15  and  O_16
                            x       y       z     vdW  Elec       q    Type
                         _______ _______ _______ _____ _____    ______ ____

>  <TORSDO>
F 4

$$$$
ox2_shuffle_ligand
 OpenBabel10092621213D

 18 19  0  0  0  0  0  0  0  0999 V2000
   -2.7350    1.7200    9.9670 C   0  0  0  0  0  0  0  0  0  0  0  0
   -2.3650    2.9620   10.4580 C   0  0  0  0  0  3  0  0  0  0  0  0
   -2.1950    4.0310    9.6020 C   0  0  0  0  0  3  0  0  0  0  0  0
   -2.3860    3.8720    8.2360 C   0  0  0  0  0  0  0  0  0  0  0  0
   -2.7510    2.6150    7.7330 C   0  0  0  0  0  0  0  0  0  0  0  0
   -2.9250    1.5500    8.6080 C   0  0  0  0  0  3  0  0  0  0  0  0
   -3.6850   -0.4110   10.5550 C   0  0  0  0  0  1  0  0  0  0  0  0
   -2.8910    0.7030   10.8750 O   0  0  0  0  0  0  0  0  0  0  0  0
   -2.2000    5.0360    7.3000 C   0  0  0  0  0  0  0  0  0  0  0  0
   -3.1560    5.4820    6.7040 O   0  0  0  0  0  0  0  0  0  0  0  0
   -0.8590    5.6190    7.0910 C   0  0  0  0  0  0  0  0  0  0  0  0
    0.2850    4.8840    7.3780 C   0  0  0  0  0  3  0  0  0  0  0  0
    1.5360    5.4500    7.1880 C   0  0  0  0  0  3  0  0  0  0  0  0
    1.6460    6.7510    6.7010 C   0  0  0  0  0  3  0  0  0  0  0  0
    0.5030    7.4930    6.4270 C   0  0  0  0  0  3  0  0  0  0  0  0
   -0.7580    6.9310    6.6340 C   0  0  0  0  0  3  0  0  0  0  0  0
   -2.9360    2.4490    6.3940 O   0  0  0  0  0  0  0  0  0  0  0  0
   -3.7590    2.7910    5.9620 H   0  0  0  0  0  0  0  0  0  0  0  0
  1  2  1  0  0  0  0
  1  8  1  0  0  0  0
  3  2  2  0  0  0  0
  4  3  1  0  0  0  0
  5  4  2  0  0  0  0
  5  6  1  0  0  0  0
  6  1  2  0  0  0  0
  7  8  1  0  0  0  0
  9  4  1  0  0  0  0
 10  9  2  0  0  0  0
 11  9  1  0  0  0  0
 11 12  1  0  0  0  0
 13 12  2  0  0  0  0
 14 13  1  0  0  0  0
 15 16  1  0  0  0  0
 15 14  2  0  0  0  0
 16 11  2  0  0  0  0
 17  5  1  0  0  0  0
 18 17  1  0  0  0  0
M  END
>  <MODEL>
7

>  <REMARK>
 VINA RESULT:      -3.1      6.602      7.959
  Name = ox2_shuffle_ligand
  5 active torsions:
  status: ('A' for Active; 'I' for Inactive)
    1  A    between atoms: C_1  and  O_2
    2  A    between atoms: O_2  and  C_3
    3  A    between atoms: C_6  and  C_7
    4  A    between atoms: C_7  and  C_9
    5  A    between atoms: C_15  and  O_16
                            x       y       z     vdW  Elec       q    Type
                         _______ _______ _______ _____ _____    ______ ____

>  <TORSDO>
F 4

$$$$
ox2_shuffle_ligand
 OpenBabel10092621213D

 18 19  0  0  0  0  0  0  0  0999 V2000
   -0.8140    6.1870    7.1330 C   0  0  0  0  0  0  0  0  0  0  0  0
   -1.7980    5.7290    6.2700 C   0  0  0  0  0  3  0  0  0  0  0  0
   -2.5410    4.6110    6.5870 C   0  0  0  0  0  3  0  0  0  0  0  0
   -2.3070    3.9260    7.7720 C   0  0  0  0  0  0  0  0  0  0  0  0
   -1.3070    4.3810    8.6440 C   0  0  0  0  0  0  0  0  0  0  0  0
   -0.5710    5.5120    8.3140 C   0  0  0  0  0  3  0  0  0  0  0  0
    0.9240    7.7940    7.5650 C   0  0  0  0  0  1  0  0  0  0  0  0
   -0.1170    7.3080    6.7570 O   0  0  0  0  0  0  0  0  0  0  0  0
   -3.1160    2.7060    8.1200 C   0  0  0  0  0  0  0  0  0  0  0  0
   -2.6000    1.6120    8.0680 O   0  0  0  0  0  0  0  0  0  0  0  0
   -4.5370    2.8370    8.5030 C   0  0  0  0  0  0  0  0  0  0  0  0
   -5.0590    4.0700    8.8750 C   0  0  0  0  0  3  0  0  0  0  0  0
   -6.3920    4.1740    9.2430 C   0  0  0  0  0  3  0  0  0  0  0  0
   -7.2080    3.0450    9.2310 C   0  0  0  0  0  3  0  0  0  0  0  0
   -6.6850    1.8080    8.8730 C   0  0  0  0  0  3  0  0  0  0  0  0
   -5.3390    1.6980    8.5190 C   0  0  0  0  0  3  0  0  0  0  0  0
   -1.0680    3.7130    9.8070 O   0  0  0  0  0  0  0  0  0  0  0  0
   -0.6540    2.8140    9.7860 H   0  0  0  0  0  0  0  0  0  0  0  0
  1  6  1  0  0  0  0
  2  3  1  0  0  0  0
  2  1  2  0  0  0  0
  3  4  2  0  0  0  0
  4  9  1  0  0  0  0
  4  5  1  0  0  0  0
  5 17  1  0  0  0  0
  6  5  2  0  0  0  0
  8  1  1  0  0  0  0
  8  7  1  0  0  0  0
  9 11  1  0  0  0  0
 10  9  2  0  0  0  0
 11 16  2  0  0  0  0
 11 12  1  0  0  0  0
 12 13  2  0  0  0  0
 14 13  1  0  0  0  0
 15 14  2  0  0  0  0
 16 15  1  0  0  0  0
 18 17  1  0  0  0  0
M  END
>  <MODEL>
8

>  <REMARK>
 VINA RESULT:      -3.1      7.559     10.065
  Name = ox2_shuffle_ligand
  5 active torsions:
  status: ('A' for Active; 'I' for Inactive)
    1  A    between atoms: C_1  and  O_2
    2  A    between atoms: O_2  and  C_3
    3  A    between atoms: C_6  and  C_7
    4  A    between atoms: C_7  and  C_9
    5  A    between atoms: C_15  and  O_16
                            x       y       z     vdW  Elec       q    Type
                         _______ _______ _______ _____ _____    ______ ____

>  <TORSDO>
F 4

$$$$
ox2_shuffle_ligand
 OpenBabel10092621213D

 18 19  0  0  0  0  0  0  0  0999 V2000
   -2.8320    1.8040    9.6610 C   0  0  0  0  0  0  0  0  0  0  0  0
   -3.1730    1.7630    8.3190 C   0  0  0  0  0  3  0  0  0  0  0  0
   -2.8150    2.7920    7.4730 C   0  0  0  0  0  3  0  0  0  0  0  0
   -2.1140    3.8870    7.9600 C   0  0  0  0  0  0  0  0  0  0  0  0
   -1.7740    3.9380    9.3200 C   0  0  0  0  0  0  0  0  0  0  0  0
   -2.1360    2.8900   10.1570 C   0  0  0  0  0  3  0  0  0  0  0  0
   -4.2330   -0.1210   10.0070 C   0  0  0  0  0  1  0  0  0  0  0  0
   -3.2160    0.7430   10.4430 O   0  0  0  0  0  0  0  0  0  0  0  0
   -1.7220    5.0120    7.0400 C   0  0  0  0  0  0  0  0  0  0  0  0
   -0.5500    5.2650    6.8710 O   0  0  0  0  0  0  0  0  0  0  0  0
   -2.7590    5.8180    6.3630 C   0  0  0  0  0  0  0  0  0  0  0  0
   -3.7810    6.4120    7.0930 C   0  0  0  0  0  3  0  0  0  0  0  0
   -4.7540    7.1550    6.4410 C   0  0  0  0  0  3  0  0  0  0  0  0
   -4.7010    7.3130    5.0580 C   0  0  0  0  0  3  0  0  0  0  0  0
   -3.6870    6.7060    4.3240 C   0  0  0  0  0  3  0  0  0  0  0  0
   -2.7160    5.9440    4.9770 C   0  0  0  0  0  3  0  0  0  0  0  0
   -1.0890    5.0100    9.8070 O   0  0  0  0  0  0  0  0  0  0  0  0
   -0.2410    5.2910    9.3800 H   0  0  0  0  0  0  0  0  0  0  0  0
  1  6  1  0  0  0  0
  1  8  1  0  0  0  0
  2  1  2  0  0  0  0
  3  4  2  0  0  0  0
  3  2  1  0  0  0  0
  4  5  1  0  0  0  0
  5 17  1  0  0  0  0
  5  6  2  0  0  0  0
  7  8  1  0  0  0  0
  9  4  1  0  0  0  0
 10  9  2  0  0  0  0
 11  9  1  0  0  0  0
 11 12  1  0  0  0  0
 13 12  2  0  0  0  0
 14 13  1  0  0  0  0
 15 16  1  0  0  0  0
 15 14  2  0  0  0  0
 16 11  2  0  0  0  0
 18 17  1  0  0  0  0
M  END
>  <MODEL>
9

>  <REMARK>
 VINA RESULT:      -3.1      7.853      8.824
  Name = ox2_shuffle_ligand
  5 active torsions:
  status: ('A' for Active; 'I' for Inactive)
    1  A    between atoms: C_1  and  O_2
    2  A    between atoms: O_2  and  C_3
    3  A    between atoms: C_6  and  C_7
    4  A    between atoms: C_7  and  C_9
    5  A    between atoms: C_15  and  O_16
                            x       y       z     vdW  Elec       q    Type
                         _______ _______ _______ _____ _____    ______ ____

>  <TORSDO>
F 4

$$$$
