ox2_orig_f8_ligand
     RDKit          3D

 29 30  0  0  0  0  0  0  0  0999 V2000
    1.4396   -2.5312   -7.9516 C   0  0  0  0  0  0  0  0  0  0  0  0
    2.4080   -1.6684   -8.4732 O   0  0  0  0  0  0  0  0  0  0  0  0
    2.4931   -0.3907   -8.0150 C   0  0  0  0  0  0  0  0  0  0  0  0
    3.4786    0.4070   -8.5581 C   0  0  0  0  0  0  0  0  0  0  0  0
    3.6240    1.7118   -8.1465 C   0  0  0  0  0  0  0  0  0  0  0  0
    2.7763    2.2314   -7.1984 C   0  0  0  0  0  0  0  0  0  0  0  0
    2.9544    3.6246   -6.7755 C   0  0  0  0  0  0  0  0  0  0  0  0
    2.9094    3.8137   -5.6837 O   0  0  0  0  0  0  0  0  0  0  0  0
    3.3312    4.7724   -7.5618 C   0  0  0  0  0  0  0  0  0  0  0  0
    2.8733    4.9119   -8.8424 C   0  0  0  0  0  0  0  0  0  0  0  0
    3.2241    6.0134   -9.5909 C   0  0  0  0  0  0  0  0  0  0  0  0
    4.0518    6.9762   -9.0641 C   0  0  0  0  0  0  0  0  0  0  0  0
    4.4991    6.8506   -7.7661 C   0  0  0  0  0  0  0  0  0  0  0  0
    4.1328    5.7531   -7.0011 C   0  0  0  0  0  0  0  0  0  0  0  0
    1.7884    1.4289   -6.6320 C   0  0  0  0  0  0  0  0  0  0  0  0
    0.9790    1.9291   -5.6846 O   0  0  0  0  0  0  0  0  0  0  0  0
    1.6553    0.1241   -7.0497 C   0  0  0  0  0  0  0  0  0  0  0  0
    1.8021   -3.5681   -8.0110 H   0  0  0  0  0  0  0  0  0  0  0  0
    1.2441   -2.2707   -6.9010 H   0  0  0  0  0  0  0  0  0  0  0  0
    0.5105   -2.4338   -8.5325 H   0  0  0  0  0  0  0  0  0  0  0  0
    4.1524   -0.0025   -9.3251 H   0  0  0  0  0  0  0  0  0  0  0  0
    4.4189    2.3388   -8.5765 H   0  0  0  0  0  0  0  0  0  0  0  0
    2.2211    4.1402   -9.2772 H   0  0  0  0  0  0  0  0  0  0  0  0
    2.8399    6.1234  -10.6158 H   0  0  0  0  0  0  0  0  0  0  0  0
    4.3549    7.8405   -9.6735 H   0  0  0  0  0  0  0  0  0  0  0  0
    5.1502    7.6251   -7.3347 H   0  0  0  0  0  0  0  0  0  0  0  0
    4.4753    5.6624   -5.9598 H   0  0  0  0  0  0  0  0  0  0  0  0
    0.2769    1.3590   -5.2819 H   0  0  0  0  0  0  0  0  0  0  0  0
    0.8738   -0.5128   -6.6095 H   0  0  0  0  0  0  0  0  0  0  0  0
  2  1  1  0
  3  2  1  0
  4  3  1  0
  5  4  2  0
  6  5  1  0
  7  6  1  0
  8  7  2  0
  9  7  1  0
 10  9  2  0
 11 10  1  0
 12 11  2  0
 13 12  1  0
 14 13  2  0
 14  9  1  0
 15  6  2  0
 16 15  1  0
 17 15  1  0
 17  3  2  0
  1 18  1  0
  1 19  1  0
  1 20  1  0
  4 21  1  0
  5 22  1  0
 10 23  1  0
 11 24  1  0
 12 25  1  0
 13 26  1  0
 14 27  1  0
 16 28  1  0
 17 29  1  0
M  END
$$$$
