ox2_orig_f8_ligand
 OpenBabel10092621203D

 18 19  0  0  0  0  0  0  0  0999 V2000
    2.7140    3.1940   -5.0170 C   0  0  0  0  0  0  0  0  0  0  0  0
    3.6000    3.1720   -6.0740 C   0  0  0  0  0  3  0  0  0  0  0  0
    3.5260    2.1790   -7.0240 C   0  0  0  0  0  3  0  0  0  0  0  0
    2.5740    1.1950   -6.9160 C   0  0  0  0  0  0  0  0  0  0  0  0
    1.6650    1.2170   -5.8610 C   0  0  0  0  0  0  0  0  0  0  0  0
    1.7470    2.2180   -4.9190 C   0  0  0  0  0  3  0  0  0  0  0  0
    3.1540    5.4940   -4.5580 C   0  0  0  0  0  1  0  0  0  0  0  0
    2.8500    4.2030   -4.1160 O   0  0  0  0  0  0  0  0  0  0  0  0
    2.5160    0.1490   -7.9430 C   0  0  0  0  0  0  0  0  0  0  0  0
    2.5010   -0.8970   -7.5750 O   0  0  0  0  0  0  0  0  0  0  0  0
    2.3240    0.2810   -9.3650 C   0  0  0  0  0  0  0  0  0  0  0  0
    1.1350    0.7370   -9.8610 C   0  0  0  0  0  3  0  0  0  0  0  0
    0.9530    0.8730  -11.2190 C   0  0  0  0  0  3  0  0  0  0  0  0
    1.9610    0.5370  -12.0920 C   0  0  0  0  0  3  0  0  0  0  0  0
    3.1700    0.0980  -11.5960 C   0  0  0  0  0  3  0  0  0  0  0  0
    3.3650   -0.0230  -10.2280 C   0  0  0  0  0  3  0  0  0  0  0  0
    0.7170    0.2710   -5.7720 O   0  0  0  0  0  0  0  0  0  0  0  0
    0.9640   -0.6850   -5.8410 H   0  0  0  0  0  0  0  0  0  0  0  0
  1  6  1  0  0  0  0
  1  8  1  0  0  0  0
  2  1  2  0  0  0  0
  3  4  2  0  0  0  0
  3  2  1  0  0  0  0
  4  5  1  0  0  0  0
  5 17  1  0  0  0  0
  5  6  2  0  0  0  0
  7  8  1  0  0  0  0
  9 10  2  0  0  0  0
  9  4  1  0  0  0  0
 11  9  1  0  0  0  0
 12 11  1  0  0  0  0
 13 12  2  0  0  0  0
 14 15  2  0  0  0  0
 14 13  1  0  0  0  0
 15 16  1  0  0  0  0
 16 11  2  0  0  0  0
 18 17  1  0  0  0  0
M  END
>  <MODEL>
1

>  <REMARK>
 VINA RESULT:      -4.6      0.000      0.000
  Name = ox2_orig_f8_ligand
  5 active torsions:
  status: ('A' for Active; 'I' for Inactive)
    1  A    between atoms: C_1  and  O_2
    2  A    between atoms: O_2  and  C_3
    3  A    between atoms: C_6  and  C_7
    4  A    between atoms: C_7  and  C_9
    5  A    between atoms: C_15  and  O_16
                            x       y       z     vdW  Elec       q    Type
                         _______ _______ _______ _____ _____    ______ ____

>  <TORSDO>
F 4

$$$$
ox2_orig_f8_ligand
 OpenBabel10092621203D

 18 19  0  0  0  0  0  0  0  0999 V2000
    2.5230    4.8210   -4.4070 C   0  0  0  0  0  0  0  0  0  0  0  0
    3.3720    3.7620   -4.6520 C   0  0  0  0  0  3  0  0  0  0  0  0
    2.9350    2.6700   -5.3660 C   0  0  0  0  0  3  0  0  0  0  0  0
    1.6420    2.6240   -5.8290 C   0  0  0  0  0  0  0  0  0  0  0  0
    0.7820    3.6960   -5.6010 C   0  0  0  0  0  0  0  0  0  0  0  0
    1.2320    4.7840   -4.8880 C   0  0  0  0  0  3  0  0  0  0  0  0
    4.2130    6.4760   -4.0960 C   0  0  0  0  0  1  0  0  0  0  0  0
    3.0230    5.8640   -3.6930 O   0  0  0  0  0  0  0  0  0  0  0  0
    1.2030    1.4480   -6.5890 C   0  0  0  0  0  0  0  0  0  0  0  0
    0.6270    0.6880   -6.0220 O   0  0  0  0  0  0  0  0  0  0  0  0
    1.2780    1.2010   -8.0060 C   0  0  0  0  0  0  0  0  0  0  0  0
    0.2170    1.4940   -8.8150 C   0  0  0  0  0  3  0  0  0  0  0  0
    0.2910    1.2680  -10.1710 C   0  0  0  0  0  3  0  0  0  0  0  0
    1.4300    0.7300  -10.7240 C   0  0  0  0  0  3  0  0  0  0  0  0
    2.5110    0.4530   -9.9160 C   0  0  0  0  0  3  0  0  0  0  0  0
    2.4480    0.6970   -8.5520 C   0  0  0  0  0  3  0  0  0  0  0  0
   -0.4720    3.6630   -6.0790 O   0  0  0  0  0  0  0  0  0  0  0  0
   -0.7050    4.1730   -6.8950 H   0  0  0  0  0  0  0  0  0  0  0  0
  1  8  1  0  0  0  0
  2  1  1  0  0  0  0
  3  2  2  0  0  0  0
  4  5  2  0  0  0  0
  4  3  1  0  0  0  0
  5  6  1  0  0  0  0
  6  1  2  0  0  0  0
  7  8  1  0  0  0  0
  9 10  2  0  0  0  0
  9  4  1  0  0  0  0
 11  9  1  0  0  0  0
 12 11  2  0  0  0  0
 13 12  1  0  0  0  0
 14 13  2  0  0  0  0
 14 15  1  0  0  0  0
 15 16  2  0  0  0  0
 16 11  1  0  0  0  0
 17  5  1  0  0  0  0
 18 17  1  0  0  0  0
M  END
>  <MODEL>
2

>  <REMARK>
 VINA RESULT:      -4.5      1.499      2.121
  Name = ox2_orig_f8_ligand
  5 active torsions:
  status: ('A' for Active; 'I' for Inactive)
    1  A    between atoms: C_1  and  O_2
    2  A    between atoms: O_2  and  C_3
    3  A    between atoms: C_6  and  C_7
    4  A    between atoms: C_7  and  C_9
    5  A    between atoms: C_15  and  O_16
                            x       y       z     vdW  Elec       q    Type
                         _______ _______ _______ _____ _____    ______ ____

>  <TORSDO>
F 4

$$$$
ox2_orig_f8_ligand
 OpenBabel10092621203D

 18 19  0  0  0  0  0  0  0  0999 V2000
    1.0400    1.1190   -7.1570 C   0  0  0  0  0  0  0  0  0  0  0  0
    1.5190    0.6420   -8.3600 C   0  0  0  0  0  3  0  0  0  0  0  0
    2.5550   -0.2640   -8.3860 C   0  0  0  0  0  3  0  0  0  0  0  0
    3.1270   -0.6880   -7.2120 C   0  0  0  0  0  0  0  0  0  0  0  0
    2.6400   -0.2240   -5.9920 C   0  0  0  0  0  0  0  0  0  0  0  0
    1.6010    0.6790   -5.9780 C   0  0  0  0  0  3  0  0  0  0  0  0
   -0.5730    2.3250   -8.4370 C   0  0  0  0  0  1  0  0  0  0  0  0
    0.0170    2.0140   -7.2090 O   0  0  0  0  0  0  0  0  0  0  0  0
    4.2290   -1.6550   -7.2690 C   0  0  0  0  0  0  0  0  0  0  0  0
    5.2100   -1.2990   -6.8950 O   0  0  0  0  0  0  0  0  0  0  0  0
    4.1920   -3.0560   -7.6020 C   0  0  0  0  0  0  0  0  0  0  0  0
    5.2180   -3.6260   -8.3030 C   0  0  0  0  0  3  0  0  0  0  0  0
    5.1890   -4.9670   -8.6120 C   0  0  0  0  0  3  0  0  0  0  0  0
    4.1210   -5.7450   -8.2320 C   0  0  0  0  0  3  0  0  0  0  0  0
    3.0950   -5.1810   -7.5060 C   0  0  0  0  0  3  0  0  0  0  0  0
    3.1270   -3.8340   -7.1750 C   0  0  0  0  0  3  0  0  0  0  0  0
    3.1800   -0.6620   -4.8440 O   0  0  0  0  0  0  0  0  0  0  0  0
    3.6970   -0.0410   -4.2720 H   0  0  0  0  0  0  0  0  0  0  0  0
  1  6  1  0  0  0  0
  2  1  2  0  0  0  0
  3  2  1  0  0  0  0
  3  4  2  0  0  0  0
  4  5  1  0  0  0  0
  5  6  2  0  0  0  0
  5 17  1  0  0  0  0
  7  8  1  0  0  0  0
  8  1  1  0  0  0  0
  9  4  1  0  0  0  0
  9 10  2  0  0  0  0
 11  9  1  0  0  0  0
 11 16  1  0  0  0  0
 12 11  2  0  0  0  0
 13 12  1  0  0  0  0
 13 14  2  0  0  0  0
 14 15  1  0  0  0  0
 15 16  2  0  0  0  0
 17 18  1  0  0  0  0
M  END
>  <MODEL>
3

>  <REMARK>
 VINA RESULT:      -4.3      3.351      4.684
  Name = ox2_orig_f8_ligand
  5 active torsions:
  status: ('A' for Active; 'I' for Inactive)
    1  A    between atoms: C_1  and  O_2
    2  A    between atoms: O_2  and  C_3
    3  A    between atoms: C_6  and  C_7
    4  A    between atoms: C_7  and  C_9
    5  A    between atoms: C_15  and  O_16
                            x       y       z     vdW  Elec       q    Type
                         _______ _______ _______ _____ _____    ______ ____

>  <TORSDO>
F 4

$$$$
ox2_orig_f8_ligand
 OpenBabel10092621203D

 18 19  0  0  0  0  0  0  0  0999 V2000
    2.1680    3.5240   -5.4710 C   0  0  0  0  0  0  0  0  0  0  0  0
    2.3890    3.9410   -6.7680 C   0  0  0  0  0  3  0  0  0  0  0  0
    2.0710    3.1210   -7.8270 C   0  0  0  0  0  3  0  0  0  0  0  0
    1.5420    1.8750   -7.5950 C   0  0  0  0  0  0  0  0  0  0  0  0
    1.2990    1.4510   -6.2910 C   0  0  0  0  0  0  0  0  0  0  0  0
    1.6180    2.2810   -5.2400 C   0  0  0  0  0  3  0  0  0  0  0  0
    3.2380    5.5390   -4.7760 C   0  0  0  0  0  1  0  0  0  0  0  0
    2.5090    4.3850   -4.4770 O   0  0  0  0  0  0  0  0  0  0  0  0
    1.2110    1.0220   -8.7430 C   0  0  0  0  0  0  0  0  0  0  0  0
    0.1390    0.7640   -8.8660 O   0  0  0  0  0  0  0  0  0  0  0  0
    2.0540    0.5900   -9.8280 C   0  0  0  0  0  0  0  0  0  0  0  0
    3.2990    0.0860   -9.5760 C   0  0  0  0  0  3  0  0  0  0  0  0
    4.1020   -0.3370  -10.6120 C   0  0  0  0  0  3  0  0  0  0  0  0
    3.6660   -0.2420  -11.9120 C   0  0  0  0  0  3  0  0  0  0  0  0
    2.4020    0.2450  -12.1710 C   0  0  0  0  0  3  0  0  0  0  0  0
    1.5820    0.6550  -11.1290 C   0  0  0  0  0  3  0  0  0  0  0  0
    0.7550    0.2440   -6.0680 O   0  0  0  0  0  0  0  0  0  0  0  0
    0.7450   -0.4350   -6.7880 H   0  0  0  0  0  0  0  0  0  0  0  0
  1  6  1  0  0  0  0
  1  8  1  0  0  0  0
  2  1  2  0  0  0  0
  3  4  2  0  0  0  0
  3  2  1  0  0  0  0
  4  5  1  0  0  0  0
  5 17  1  0  0  0  0
  5  6  2  0  0  0  0
  7  8  1  0  0  0  0
  9  4  1  0  0  0  0
 10  9  2  0  0  0  0
 11 12  1  0  0  0  0
 11  9  1  0  0  0  0
 13 12  2  0  0  0  0
 14 13  1  0  0  0  0
 15 14  2  0  0  0  0
 15 16  1  0  0  0  0
 16 11  2  0  0  0  0
 18 17  1  0  0  0  0
M  END
>  <MODEL>
4

>  <REMARK>
 VINA RESULT:      -4.2      1.185      1.699
  Name = ox2_orig_f8_ligand
  5 active torsions:
  status: ('A' for Active; 'I' for Inactive)
    1  A    between atoms: C_1  and  O_2
    2  A    between atoms: O_2  and  C_3
    3  A    between atoms: C_6  and  C_7
    4  A    between atoms: C_7  and  C_9
    5  A    between atoms: C_15  and  O_16
                            x       y       z     vdW  Elec       q    Type
                         _______ _______ _______ _____ _____    ______ ____

>  <TORSDO>
F 4

$$$$
ox2_orig_f8_ligand
 OpenBabel10092621203D

 18 19  0  0  0  0  0  0  0  0999 V2000
   -0.0580    1.6340   -9.4550 C   0  0  0  0  0  0  0  0  0  0  0  0
    0.7570    0.5340   -9.2870 C   0  0  0  0  0  3  0  0  0  0  0  0
    1.3640    0.2950   -8.0760 C   0  0  0  0  0  3  0  0  0  0  0  0
    1.1690    1.1610   -7.0270 C   0  0  0  0  0  0  0  0  0  0  0  0
    0.3350    2.2660   -7.1810 C   0  0  0  0  0  0  0  0  0  0  0  0
   -0.2690    2.4930   -8.3970 C   0  0  0  0  0  3  0  0  0  0  0  0
    0.0090    1.2880  -11.8140 C   0  0  0  0  0  1  0  0  0  0  0  0
   -0.6210    1.8080  -10.6800 O   0  0  0  0  0  0  0  0  0  0  0  0
    1.8270    0.8810   -5.7460 C   0  0  0  0  0  0  0  0  0  0  0  0
    1.1610    0.5840   -4.9100 O   0  0  0  0  0  0  0  0  0  0  0  0
    3.2330    0.7870   -5.4470 C   0  0  0  0  0  0  0  0  0  0  0  0
    3.8710   -0.4210   -5.5040 C   0  0  0  0  0  3  0  0  0  0  0  0
    5.2170   -0.5110   -5.2290 C   0  0  0  0  0  3  0  0  0  0  0  0
    5.9310    0.6110   -4.8790 C   0  0  0  0  0  3  0  0  0  0  0  0
    5.2980    1.8350   -4.8410 C   0  0  0  0  0  3  0  0  0  0  0  0
    3.9460    1.9340   -5.1360 C   0  0  0  0  0  3  0  0  0  0  0  0
    0.1230    3.0950   -6.1470 O   0  0  0  0  0  0  0  0  0  0  0  0
   -0.0700    4.0520   -6.3120 H   0  0  0  0  0  0  0  0  0  0  0  0
  1  2  2  0  0  0  0
  1  6  1  0  0  0  0
  2  3  1  0  0  0  0
  3  4  2  0  0  0  0
  4  9  1  0  0  0  0
  5  4  1  0  0  0  0
  5 17  1  0  0  0  0
  6  5  2  0  0  0  0
  7  8  1  0  0  0  0
  8  1  1  0  0  0  0
  9 11  1  0  0  0  0
  9 10  2  0  0  0  0
 11 16  1  0  0  0  0
 12 11  2  0  0  0  0
 12 13  1  0  0  0  0
 13 14  2  0  0  0  0
 14 15  1  0  0  0  0
 16 15  2  0  0  0  0
 18 17  1  0  0  0  0
M  END
>  <MODEL>
5

>  <REMARK>
 VINA RESULT:      -4.2      2.411      5.451
  Name = ox2_orig_f8_ligand
  5 active torsions:
  status: ('A' for Active; 'I' for Inactive)
    1  A    between atoms: C_1  and  O_2
    2  A    between atoms: O_2  and  C_3
    3  A    between atoms: C_6  and  C_7
    4  A    between atoms: C_7  and  C_9
    5  A    between atoms: C_15  and  O_16
                            x       y       z     vdW  Elec       q    Type
                         _______ _______ _______ _____ _____    ______ ____

>  <TORSDO>
F 4

$$$$
ox2_orig_f8_ligand
 OpenBabel10092621203D

 18 19  0  0  0  0  0  0  0  0999 V2000
    4.3930   -1.2440   -8.4020 C   0  0  0  0  0  0  0  0  0  0  0  0
    3.5730   -0.3020   -8.9900 C   0  0  0  0  0  3  0  0  0  0  0  0
    2.7100    0.4450   -8.2230 C   0  0  0  0  0  3  0  0  0  0  0  0
    2.6510    0.2470   -6.8650 C   0  0  0  0  0  0  0  0  0  0  0  0
    3.4860   -0.6890   -6.2590 C   0  0  0  0  0  0  0  0  0  0  0  0
    4.3480   -1.4280   -7.0370 C   0  0  0  0  0  3  0  0  0  0  0  0
    5.7150   -3.1870   -8.8150 C   0  0  0  0  0  1  0  0  0  0  0  0
    5.2180   -1.9460   -9.2240 O   0  0  0  0  0  0  0  0  0  0  0  0
    1.7220    1.0590   -6.0700 C   0  0  0  0  0  0  0  0  0  0  0  0
    0.8260    0.5350   -5.6800 O   0  0  0  0  0  0  0  0  0  0  0  0
    1.8760    2.4090   -5.5910 C   0  0  0  0  0  0  0  0  0  0  0  0
    3.0190    2.7860   -4.9440 C   0  0  0  0  0  3  0  0  0  0  0  0
    3.1720    4.0780   -4.4940 C   0  0  0  0  0  3  0  0  0  0  0  0
    2.1680    5.0000   -4.6770 C   0  0  0  0  0  3  0  0  0  0  0  0
    1.0210    4.6310   -5.3480 C   0  0  0  0  0  3  0  0  0  0  0  0
    0.8710    3.3350   -5.8200 C   0  0  0  0  0  3  0  0  0  0  0  0
    3.4480   -0.8610   -4.9290 O   0  0  0  0  0  0  0  0  0  0  0  0
    2.5990   -1.1100   -4.4860 H   0  0  0  0  0  0  0  0  0  0  0  0
  1  6  1  0  0  0  0
  2  1  2  0  0  0  0
  2  3  1  0  0  0  0
  3  4  2  0  0  0  0
  4  5  1  0  0  0  0
  4  9  1  0  0  0  0
  5 17  1  0  0  0  0
  6  5  2  0  0  0  0
  8  7  1  0  0  0  0
  8  1  1  0  0  0  0
  9 10  2  0  0  0  0
  9 11  1  0  0  0  0
 11 12  1  0  0  0  0
 12 13  2  0  0  0  0
 14 13  1  0  0  0  0
 15 14  2  0  0  0  0
 16 11  2  0  0  0  0
 16 15  1  0  0  0  0
 17 18  1  0  0  0  0
M  END
>  <MODEL>
6

>  <REMARK>
 VINA RESULT:      -4.2      2.144      5.801
  Name = ox2_orig_f8_ligand
  5 active torsions:
  status: ('A' for Active; 'I' for Inactive)
    1  A    between atoms: C_1  and  O_2
    2  A    between atoms: O_2  and  C_3
    3  A    between atoms: C_6  and  C_7
    4  A    between atoms: C_7  and  C_9
    5  A    between atoms: C_15  and  O_16
                            x       y       z     vdW  Elec       q    Type
                         _______ _______ _______ _____ _____    ______ ____

>  <TORSDO>
F 4

$$$$
ox2_orig_f8_ligand
 OpenBabel10092621203D

 18 19  0  0  0  0  0  0  0  0999 V2000
    4.2760    5.4660   -4.5530 C   0  0  0  0  0  0  0  0  0  0  0  0
    4.8190    4.3620   -5.1780 C   0  0  0  0  0  3  0  0  0  0  0  0
    4.0350    3.2680   -5.4640 C   0  0  0  0  0  3  0  0  0  0  0  0
    2.7060    3.2660   -5.1150 C   0  0  0  0  0  0  0  0  0  0  0  0
    2.1450    4.3820   -4.4990 C   0  0  0  0  0  0  0  0  0  0  0  0
    2.9390    5.4720   -4.2210 C   0  0  0  0  0  3  0  0  0  0  0  0
    6.3050    6.2900   -3.6060 C   0  0  0  0  0  1  0  0  0  0  0  0
    5.1120    6.5080   -4.3010 O   0  0  0  0  0  0  0  0  0  0  0  0
    1.8930    2.0870   -5.4330 C   0  0  0  0  0  0  0  0  0  0  0  0
    1.5010    1.5160   -4.5660 O   0  0  0  0  0  0  0  0  0  0  0  0
    1.3980    1.6410   -6.7100 C   0  0  0  0  0  0  0  0  0  0  0  0
    1.9120    0.5170   -7.2940 C   0  0  0  0  0  3  0  0  0  0  0  0
    1.4320    0.0830   -8.5100 C   0  0  0  0  0  3  0  0  0  0  0  0
    0.4430    0.7850   -9.1570 C   0  0  0  0  0  3  0  0  0  0  0  0
   -0.0940    1.9070   -8.5620 C   0  0  0  0  0  3  0  0  0  0  0  0
    0.3720    2.3370   -7.3280 C   0  0  0  0  0  3  0  0  0  0  0  0
    0.8400    4.3890   -4.1850 O   0  0  0  0  0  0  0  0  0  0  0  0
    0.5040    3.8160   -3.4510 H   0  0  0  0  0  0  0  0  0  0  0  0
  1  8  1  0  0  0  0
  1  6  1  0  0  0  0
  2  1  2  0  0  0  0
  3  2  1  0  0  0  0
  3  4  2  0  0  0  0
  4  5  1  0  0  0  0
  5  6  2  0  0  0  0
  5 17  1  0  0  0  0
  8  7  1  0  0  0  0
  9  4  1  0  0  0  0
  9 10  2  0  0  0  0
 11  9  1  0  0  0  0
 12 11  1  0  0  0  0
 13 12  2  0  0  0  0
 14 15  2  0  0  0  0
 14 13  1  0  0  0  0
 15 16  1  0  0  0  0
 16 11  2  0  0  0  0
 17 18  1  0  0  0  0
M  END
>  <MODEL>
7

>  <REMARK>
 VINA RESULT:      -4.2      2.011      3.409
  Name = ox2_orig_f8_ligand
  5 active torsions:
  status: ('A' for Active; 'I' for Inactive)
    1  A    between atoms: C_1  and  O_2
    2  A    between atoms: O_2  and  C_3
    3  A    between atoms: C_6  and  C_7
    4  A    between atoms: C_7  and  C_9
    5  A    between atoms: C_15  and  O_16
                            x       y       z     vdW  Elec       q    Type
                         _______ _______ _______ _____ _____    ______ ____

>  <TORSDO>
F 4

$$$$
ox2_orig_f8_ligand
 OpenBabel10092621203D

 18 19  0  0  0  0  0  0  0  0999 V2000
    5.5340    2.1230   -4.9540 C   0  0  0  0  0  0  0  0  0  0  0  0
    4.6510    3.0640   -5.4410 C   0  0  0  0  0  3  0  0  0  0  0  0
    3.3840    2.6930   -5.8300 C   0  0  0  0  0  3  0  0  0  0  0  0
    2.9970    1.3780   -5.7470 C   0  0  0  0  0  0  0  0  0  0  0  0
    3.8760    0.4230   -5.2410 C   0  0  0  0  0  0  0  0  0  0  0  0
    5.1400    0.8060   -4.8520 C   0  0  0  0  0  3  0  0  0  0  0  0
    7.6150    1.7290   -3.8540 C   0  0  0  0  0  1  0  0  0  0  0  0
    6.7690    2.5620   -4.5930 O   0  0  0  0  0  0  0  0  0  0  0  0
    1.6400    1.0110   -6.1670 C   0  0  0  0  0  0  0  0  0  0  0  0
    0.9700    0.6240   -5.3720 O   0  0  0  0  0  0  0  0  0  0  0  0
    0.9930    1.2210   -7.4370 C   0  0  0  0  0  0  0  0  0  0  0  0
    0.0130    2.1640   -7.5650 C   0  0  0  0  0  3  0  0  0  0  0  0
   -0.5990    2.3730   -8.7810 C   0  0  0  0  0  3  0  0  0  0  0  0
   -0.2410    1.6230   -9.8760 C   0  0  0  0  0  3  0  0  0  0  0  0
    0.7630    0.6850   -9.7580 C   0  0  0  0  0  3  0  0  0  0  0  0
    1.3950    0.4840   -8.5400 C   0  0  0  0  0  3  0  0  0  0  0  0
    3.4860   -0.8570   -5.1330 O   0  0  0  0  0  0  0  0  0  0  0  0
    3.4890   -1.3020   -4.2490 H   0  0  0  0  0  0  0  0  0  0  0  0
  1  6  1  0  0  0  0
  1  8  1  0  0  0  0
  2  1  2  0  0  0  0
  3  4  2  0  0  0  0
  3  2  1  0  0  0  0
  4  5  1  0  0  0  0
  5 17  1  0  0  0  0
  5  6  2  0  0  0  0
  8  7  1  0  0  0  0
  9  4  1  0  0  0  0
  9 10  2  0  0  0  0
 11  9  1  0  0  0  0
 12 11  1  0  0  0  0
 13 12  2  0  0  0  0
 14 15  2  0  0  0  0
 14 13  1  0  0  0  0
 15 16  1  0  0  0  0
 16 11  2  0  0  0  0
 17 18  1  0  0  0  0
M  END
>  <MODEL>
8

>  <REMARK>
 VINA RESULT:      -4.2      2.342      3.094
  Name = ox2_orig_f8_ligand
  5 active torsions:
  status: ('A' for Active; 'I' for Inactive)
    1  A    between atoms: C_1  and  O_2
    2  A    between atoms: O_2  and  C_3
    3  A    between atoms: C_6  and  C_7
    4  A    between atoms: C_7  and  C_9
    5  A    between atoms: C_15  and  O_16
                            x       y       z     vdW  Elec       q    Type
                         _______ _______ _______ _____ _____    ______ ____

>  <TORSDO>
F 4

$$$$
ox2_orig_f8_ligand
 OpenBabel10092621203D

 18 19  0  0  0  0  0  0  0  0999 V2000
    1.0180    5.0920   -6.3840 C   0  0  0  0  0  0  0  0  0  0  0  0
    2.0620    4.7840   -5.5360 C   0  0  0  0  0  3  0  0  0  0  0  0
    2.3560    3.4720   -5.2400 C   0  0  0  0  0  3  0  0  0  0  0  0
    1.5990    2.4610   -5.7810 C   0  0  0  0  0  0  0  0  0  0  0  0
    0.5540    2.7600   -6.6510 C   0  0  0  0  0  0  0  0  0  0  0  0
    0.2720    4.0760   -6.9420 C   0  0  0  0  0  3  0  0  0  0  0  0
   -0.2530    6.7860   -7.4840 C   0  0  0  0  0  1  0  0  0  0  0  0
    0.7860    6.4090   -6.6270 O   0  0  0  0  0  0  0  0  0  0  0  0
    1.9350    1.0720   -5.4500 C   0  0  0  0  0  0  0  0  0  0  0  0
    1.2900    0.5810   -4.6930 O   0  0  0  0  0  0  0  0  0  0  0  0
    2.8910    0.1930   -6.0750 C   0  0  0  0  0  0  0  0  0  0  0  0
    4.1160   -0.0120   -5.5040 C   0  0  0  0  0  3  0  0  0  0  0  0
    5.0260   -0.8590   -6.0950 C   0  0  0  0  0  3  0  0  0  0  0  0
    4.7190   -1.4960   -7.2740 C   0  0  0  0  0  3  0  0  0  0  0  0
    3.4770   -1.3100   -7.8430 C   0  0  0  0  0  3  0  0  0  0  0  0
    2.5490   -0.4720   -7.2410 C   0  0  0  0  0  3  0  0  0  0  0  0
   -0.1660    1.7700   -7.2010 O   0  0  0  0  0  0  0  0  0  0  0  0
   -0.2160    0.8880   -6.7550 H   0  0  0  0  0  0  0  0  0  0  0  0
  1  2  1  0  0  0  0
  2  3  2  0  0  0  0
  4  9  1  0  0  0  0
  4  3  1  0  0  0  0
  5  4  2  0  0  0  0
  6  5  1  0  0  0  0
  6  1  2  0  0  0  0
  7  8  1  0  0  0  0
  8  1  1  0  0  0  0
  9 10  2  0  0  0  0
 11 12  1  0  0  0  0
 11  9  1  0  0  0  0
 13 12  2  0  0  0  0
 14 13  1  0  0  0  0
 15 14  2  0  0  0  0
 15 16  1  0  0  0  0
 16 11  2  0  0  0  0
 17 18  1  0  0  0  0
 17  5  1  0  0  0  0
M  END
>  <MODEL>
9

>  <REMARK>
 VINA RESULT:      -4.0      2.724      3.801
  Name = ox2_orig_f8_ligand
  5 active torsions:
  status: ('A' for Active; 'I' for Inactive)
    1  A    between atoms: C_1  and  O_2
    2  A    between atoms: O_2  and  C_3
    3  A    between atoms: C_6  and  C_7
    4  A    between atoms: C_7  and  C_9
    5  A    between atoms: C_15  and  O_16
                            x       y       z     vdW  Elec       q    Type
                         _______ _______ _______ _____ _____    ______ ____

>  <TORSDO>
F 4

$$$$
