ox2_orig_f8_dockpose1
     RDKit          3D

 17 18  0  0  0  0  0  0  0  0999 V2000
    0.8330   -1.6860    0.2680 C   0  0  0  0  0  0  0  0  0  0  0  0
    0.4480   -0.3620    0.0370 O   0  0  0  0  0  0  0  0  0  0  0  0
    0.2980    0.0860   -1.2380 C   0  0  0  0  0  0  0  0  0  0  0  0
    0.6070    1.4090   -1.4790 C   0  0  0  0  0  0  0  0  0  0  0  0
    0.4830    1.9340   -2.7450 C   0  0  0  0  0  0  0  0  0  0  0  0
    0.0610    1.1360   -3.7800 C   0  0  0  0  0  0  0  0  0  0  0  0
   -0.0650    1.7210   -5.1200 C   0  0  0  0  0  0  0  0  0  0  0  0
   -1.0730    1.6770   -5.5790 O   0  0  0  0  0  0  0  0  0  0  0  0
    0.8990    2.4840   -5.8730 C   0  0  0  0  0  0  0  0  0  0  0  0
    2.2350    2.2300   -5.7410 C   0  0  0  0  0  0  0  0  0  0  0  0
    3.1560    2.9510   -6.4680 C   0  0  0  0  0  0  0  0  0  0  0  0
    2.7420    3.9450   -7.3220 C   0  0  0  0  0  0  0  0  0  0  0  0
    1.3940    4.1900   -7.4750 C   0  0  0  0  0  0  0  0  0  0  0  0
    0.4620    3.4540   -6.7600 C   0  0  0  0  0  0  0  0  0  0  0  0
   -0.2700   -0.1970   -3.5440 C   0  0  0  0  0  0  0  0  0  0  0  0
   -0.7100   -0.9680   -4.5510 O   0  0  0  0  0  0  0  0  0  0  0  0
   -0.1450   -0.7090   -2.2720 C   0  0  0  0  0  0  0  0  0  0  0  0
  2  1  1  0
  3  2  1  0
  4  3  1  0
  5  4  2  0
  6  5  1  0
  7  6  1  0
  8  7  2  0
  9  7  1  0
 10  9  2  0
 11 10  1  0
 12 11  2  0
 13 12  1  0
 14 13  2  0
 14  9  1  0
 15  6  2  0
 16 15  1  0
 17 15  1  0
 17  3  2  0
M  END
$$$$
