shuffle_control_esm0_ligand
     RDKit          3D

 44 44  0  0  0  0  0  0  0  0999 V2000
    1.5152    9.5002    9.7660 C   0  0  0  0  0  0  0  0  0  0  0  0
    0.5182    8.4562    9.4024 C   0  0  0  0  0  0  0  0  0  0  0  0
    0.7382    7.7134    8.1196 C   0  0  0  0  0  0  0  0  0  0  0  0
    2.1265    7.6798    7.5801 C   0  0  0  0  0  0  0  0  0  0  0  0
    2.3246    6.7581    6.4214 C   0  0  1  0  0  0  0  0  0  0  0  0
    3.8180    6.5689    6.2272 C   0  0  0  0  0  0  0  0  0  0  0  0
    4.2401    5.8066    5.0044 C   0  0  0  0  0  0  0  0  0  0  0  0
    1.6519    5.5373    6.7132 O   0  0  0  0  0  0  0  0  0  0  0  0
    0.8379    4.9210    5.8207 C   0  0  0  0  0  0  0  0  0  0  0  0
    0.7273    5.3097    4.7014 O   0  0  0  0  0  0  0  0  0  0  0  0
    0.1032    3.7404    6.3694 C   0  0  0  0  0  0  0  0  0  0  0  0
   -1.0168    3.8961    7.0529 C   0  0  0  0  0  0  0  0  0  0  0  0
   -1.7281    2.7734    7.7346 C   0  0  0  0  0  0  0  0  0  0  0  0
   -2.0927    2.9326    9.0470 C   0  0  0  0  0  0  0  0  0  0  0  0
   -2.7301    1.9117    9.7378 C   0  0  0  0  0  0  0  0  0  0  0  0
   -3.0191    0.7156    9.1082 C   0  0  0  0  0  0  0  0  0  0  0  0
   -3.6265   -0.3061    9.7472 O   0  0  0  0  0  0  0  0  0  0  0  0
   -3.9083   -0.1943   11.1408 C   0  0  0  0  0  0  0  0  0  0  0  0
   -2.6560    0.5562    7.7707 C   0  0  0  0  0  0  0  0  0  0  0  0
   -2.0174    1.5911    7.0800 C   0  0  0  0  0  0  0  0  0  0  0  0
    2.4714    9.2835    9.2675 H   0  0  0  0  0  0  0  0  0  0  0  0
    1.1484   10.4857    9.4432 H   0  0  0  0  0  0  0  0  0  0  0  0
    1.6623    9.5028   10.8561 H   0  0  0  0  0  0  0  0  0  0  0  0
    0.5042    7.7152   10.2152 H   0  0  0  0  0  0  0  0  0  0  0  0
   -0.4237    9.0046    9.2534 H   0  0  0  0  0  0  0  0  0  0  0  0
    0.4212    6.6726    8.2817 H   0  0  0  0  0  0  0  0  0  0  0  0
    0.1561    8.2675    7.3684 H   0  0  0  0  0  0  0  0  0  0  0  0
    2.3935    8.6972    7.2580 H   0  0  0  0  0  0  0  0  0  0  0  0
    2.7655    7.3006    8.3911 H   0  0  0  0  0  0  0  0  0  0  0  0
    1.9085    7.1587    5.4852 H   0  0  0  0  0  0  0  0  0  0  0  0
    4.2780    7.5667    6.1750 H   0  0  0  0  0  0  0  0  0  0  0  0
    4.1491    5.9592    7.0808 H   0  0  0  0  0  0  0  0  0  0  0  0
    4.8743    4.9584    5.3018 H   0  0  0  0  0  0  0  0  0  0  0  0
    3.3487    5.4317    4.4801 H   0  0  0  0  0  0  0  0  0  0  0  0
    4.8067    6.4711    4.3354 H   0  0  0  0  0  0  0  0  0  0  0  0
    0.5004    2.7283    6.2019 H   0  0  0  0  0  0  0  0  0  0  0  0
   -1.4480    4.9056    7.1237 H   0  0  0  0  0  0  0  0  0  0  0  0
   -1.8771    3.8822    9.5589 H   0  0  0  0  0  0  0  0  0  0  0  0
   -3.0071    2.0552   10.7927 H   0  0  0  0  0  0  0  0  0  0  0  0
   -3.5664   -1.1029   11.6581 H   0  0  0  0  0  0  0  0  0  0  0  0
   -3.3838    0.6809   11.5518 H   0  0  0  0  0  0  0  0  0  0  0  0
   -4.9919   -0.0747   11.2874 H   0  0  0  0  0  0  0  0  0  0  0  0
   -2.8736   -0.3909    7.2552 H   0  0  0  0  0  0  0  0  0  0  0  0
   -1.7468    1.4647    6.0213 H   0  0  0  0  0  0  0  0  0  0  0  0
  2  1  1  0
  3  2  1  0
  4  3  1  0
  5  4  1  0
  6  5  1  0
  7  6  1  0
  8  5  1  0
  9  8  1  0
 10  9  2  0
 11  9  1  0
 12 11  2  3
 13 12  1  0
 14 13  1  0
 15 14  2  0
 16 15  1  0
 17 16  1  0
 18 17  1  0
 19 16  2  0
 20 13  2  0
 20 19  1  0
  1 21  1  0
  1 22  1  0
  1 23  1  0
  2 24  1  0
  2 25  1  0
  3 26  1  0
  3 27  1  0
  4 28  1  0
  4 29  1  0
  5 30  1  6
  6 31  1  0
  6 32  1  0
  7 33  1  0
  7 34  1  0
  7 35  1  0
 11 36  1  0
 12 37  1  0
 14 38  1  0
 15 39  1  0
 18 40  1  0
 18 41  1  0
 18 42  1  0
 19 43  1  0
 20 44  1  0
M  END
$$$$
