shuffle_control_esm0_ligand
 OpenBabel10092621103D

 20 20  0  0  1  0  0  0  0  0999 V2000
    4.9970    3.2490    5.8000 C   0  0  0  0  0  0  0  0  0  0  0  0
    4.1070    3.7680    6.3960 O   0  0  0  0  0  0  0  0  0  0  0  0
    5.4420    3.6680    4.4360 C   0  0  0  0  0  3  0  0  0  0  0  0
    6.1900    4.7450    4.2680 C   0  0  0  0  0  3  0  0  0  0  0  0
    6.5590    5.2900    2.9270 C   0  0  0  0  0  0  0  0  0  0  0  0
    7.8570    5.6810    2.7160 C   0  0  0  0  0  3  0  0  0  0  0  0
    8.2480    6.2200    1.4990 C   0  0  0  0  0  3  0  0  0  0  0  0
    7.3350    6.3620    0.4710 C   0  0  0  0  0  0  0  0  0  0  0  0
    6.0180    5.9550    0.6810 C   0  0  0  0  0  3  0  0  0  0  0  0
    5.6310    5.4090    1.9100 C   0  0  0  0  0  3  0  0  0  0  0  0
    7.6730    6.8920   -0.7240 O   0  0  0  0  0  0  0  0  0  0  0  0
    9.0510    7.0240   -1.0690 C   0  0  0  0  0  1  0  0  0  0  0  0
    5.6890    2.2040    6.3180 O   0  0  0  0  0  0  0  0  0  0  0  0
    6.0890    1.0850    5.5330 C   0  0  2  0  0  3  0  0  0  0  0  0
    5.2410   -0.1450    5.7960 C   0  0  0  0  0  2  0  0  0  0  0  0
    4.0220   -0.3110    4.9340 C   0  0  0  0  0  1  0  0  0  0  0  0
    7.5010    0.7530    5.8930 C   0  0  0  0  0  2  0  0  0  0  0  0
    8.5330    1.4690    5.0900 C   0  0  0  0  0  2  0  0  0  0  0  0
    9.3610    3.7720    5.8080 C   0  0  0  0  0  1  0  0  0  0  0  0
    9.5340    2.2940    5.8400 C   0  0  0  0  0  2  0  0  0  0  0  0
  1 13  1  0  0  0  0
  1  2  2  0  0  0  0
  3  1  1  0  0  0  0
  4  3  2  0  0  0  0
  5  4  1  0  0  0  0
  6  5  1  0  0  0  0
  7  6  2  0  0  0  0
  8  9  2  0  0  0  0
  8  7  1  0  0  0  0
  9 10  1  0  0  0  0
 10  5  2  0  0  0  0
 11  8  1  0  0  0  0
 12 11  1  0  0  0  0
 14 15  1  1  0  0  0
 14 17  1  0  0  0  0
 14 13  1  0  0  0  0
 16 15  1  0  0  0  0
 18 20  1  0  0  0  0
 18 17  1  0  0  0  0
 19 20  1  0  0  0  0
M  END
>  <MODEL>
1

>  <REMARK>
 VINA RESULT:      -4.5      0.000      0.000
  Name = shuffle_control_esm0_ligand
  12 active torsions:
  status: ('A' for Active; 'I' for Inactive)
    1  A    between atoms: C_1  and  C_2
    2  A    between atoms: C_2  and  C_3
    3  A    between atoms: C_3  and  C_4
    4  A    between atoms: C_4  and  C_5
    5  A    between atoms: C_5  and  C_6
    6  A    between atoms: C_5  and  O_8
    7  A    between atoms: C_6  and  C_7
    8  A    between atoms: O_8  and  C_9
    9  A    between atoms: C_9  and  C_11
   10  A    between atoms: C_12  and  C_13
   11  A    between atoms: C_16  and  O_17
   12  A    between atoms: O_17  and  C_18
                            x       y       z     vdW  Elec       q    Type
                         _______ _______ _______ _____ _____    ______ ____

>  <TORSDO>
F 9

$$$$
shuffle_control_esm0_ligand
 OpenBabel10092621103D

 20 20  0  0  1  0  0  0  0  0999 V2000
    7.8490    2.1970    5.3220 C   0  0  0  0  0  0  0  0  0  0  0  0
    8.7190    2.4380    6.0980 O   0  0  0  0  0  0  0  0  0  0  0  0
    7.5890    2.9980    4.0870 C   0  0  0  0  0  3  0  0  0  0  0  0
    7.5460    4.3180    4.1310 C   0  0  0  0  0  3  0  0  0  0  0  0
    7.1650    5.1680    2.9630 C   0  0  0  0  0  0  0  0  0  0  0  0
    5.8590    5.1540    2.5440 C   0  0  0  0  0  3  0  0  0  0  0  0
    5.4550    5.9020    1.4480 C   0  0  0  0  0  3  0  0  0  0  0  0
    6.3650    6.6870    0.7640 C   0  0  0  0  0  0  0  0  0  0  0  0
    7.6910    6.7090    1.1950 C   0  0  0  0  0  3  0  0  0  0  0  0
    8.0900    5.9550    2.3040 C   0  0  0  0  0  3  0  0  0  0  0  0
    6.0160    7.4210   -0.3140 O   0  0  0  0  0  0  0  0  0  0  0  0
    4.8650    8.2610   -0.2480 C   0  0  0  0  0  1  0  0  0  0  0  0
    6.9980    1.1580    5.5050 O   0  0  0  0  0  0  0  0  0  0  0  0
    5.5890    1.2800    5.3320 C   0  0  2  0  0  3  0  0  0  0  0  0
    4.9680    2.2760    6.2930 C   0  0  0  0  0  2  0  0  0  0  0  0
    4.2500    3.4410    5.6750 C   0  0  0  0  0  1  0  0  0  0  0  0
    4.9760   -0.0560    5.5970 C   0  0  0  0  0  2  0  0  0  0  0  0
    3.6870   -0.3020    4.8900 C   0  0  0  0  0  2  0  0  0  0  0  0
    1.4870    0.9220    5.3000 C   0  0  0  0  0  1  0  0  0  0  0  0
    2.4280   -0.1640    5.6900 C   0  0  0  0  0  2  0  0  0  0  0  0
  1 13  1  0  0  0  0
  1  2  2  0  0  0  0
  3  4  2  0  0  0  0
  3  1  1  0  0  0  0
  5  4  1  0  0  0  0
  6  5  1  0  0  0  0
  7  6  2  0  0  0  0
  8  9  2  0  0  0  0
  8  7  1  0  0  0  0
  9 10  1  0  0  0  0
 10  5  2  0  0  0  0
 11 12  1  0  0  0  0
 11  8  1  0  0  0  0
 14 13  1  0  0  0  0
 14 17  1  1  0  0  0
 14 15  1  0  0  0  0
 16 15  1  0  0  0  0
 18 17  1  0  0  0  0
 18 20  1  0  0  0  0
 19 20  1  0  0  0  0
M  END
>  <MODEL>
2

>  <REMARK>
 VINA RESULT:      -4.1      1.595      3.688
  Name = shuffle_control_esm0_ligand
  12 active torsions:
  status: ('A' for Active; 'I' for Inactive)
    1  A    between atoms: C_1  and  C_2
    2  A    between atoms: C_2  and  C_3
    3  A    between atoms: C_3  and  C_4
    4  A    between atoms: C_4  and  C_5
    5  A    between atoms: C_5  and  C_6
    6  A    between atoms: C_5  and  O_8
    7  A    between atoms: C_6  and  C_7
    8  A    between atoms: O_8  and  C_9
    9  A    between atoms: C_9  and  C_11
   10  A    between atoms: C_12  and  C_13
   11  A    between atoms: C_16  and  O_17
   12  A    between atoms: O_17  and  C_18
                            x       y       z     vdW  Elec       q    Type
                         _______ _______ _______ _____ _____    ______ ____

>  <TORSDO>
F 9

$$$$
shuffle_control_esm0_ligand
 OpenBabel10092621103D

 20 20  0  0  1  0  0  0  0  0999 V2000
    5.5330    3.8470    4.5820 C   0  0  0  0  0  0  0  0  0  0  0  0
    4.7730    4.1590    5.4440 O   0  0  0  0  0  0  0  0  0  0  0  0
    6.0500    4.7920    3.5460 C   0  0  0  0  0  3  0  0  0  0  0  0
    7.3150    4.7560    3.1660 C   0  0  0  0  0  3  0  0  0  0  0  0
    7.9240    5.7530    2.2340 C   0  0  0  0  0  0  0  0  0  0  0  0
    7.4730    5.7960    0.9400 C   0  0  0  0  0  3  0  0  0  0  0  0
    8.0230    6.6820    0.0240 C   0  0  0  0  0  3  0  0  0  0  0  0
    9.0290    7.5490    0.4080 C   0  0  0  0  0  0  0  0  0  0  0  0
    9.4810    7.5120    1.7260 C   0  0  0  0  0  3  0  0  0  0  0  0
    8.9200    6.6180    2.6440 C   0  0  0  0  0  3  0  0  0  0  0  0
    9.5980    8.4180   -0.4540 O   0  0  0  0  0  0  0  0  0  0  0  0
    8.8650    8.8540   -1.5980 C   0  0  0  0  0  1  0  0  0  0  0  0
    5.9930    2.5780    4.4610 O   0  0  0  0  0  0  0  0  0  0  0  0
    6.0150    1.6630    5.5530 C   0  0  2  0  0  3  0  0  0  0  0  0
    7.3730    1.0140    5.7430 C   0  0  0  0  0  2  0  0  0  0  0  0
    8.4510    1.4310    4.7840 C   0  0  0  0  0  1  0  0  0  0  0  0
    5.0270    0.5800    5.2640 C   0  0  0  0  0  2  0  0  0  0  0  0
    3.8030    0.6100    6.1140 C   0  0  0  0  0  2  0  0  0  0  0  0
    1.4340    0.9640    5.2380 C   0  0  0  0  0  1  0  0  0  0  0  0
    2.5510    0.0260    5.5350 C   0  0  0  0  0  2  0  0  0  0  0  0
  1  2  2  0  0  0  0
  3  1  1  0  0  0  0
  4  3  2  0  0  0  0
  5 10  1  0  0  0  0
  5  4  1  0  0  0  0
  6  5  2  0  0  0  0
  7  8  2  0  0  0  0
  7  6  1  0  0  0  0
  8  9  1  0  0  0  0
  9 10  2  0  0  0  0
 11  8  1  0  0  0  0
 12 11  1  0  0  0  0
 13  1  1  0  0  0  0
 13 14  1  0  0  0  0
 14 17  1  6  0  0  0
 14 15  1  0  0  0  0
 16 15  1  0  0  0  0
 17 18  1  0  0  0  0
 19 20  1  0  0  0  0
 20 18  1  0  0  0  0
M  END
>  <MODEL>
3

>  <REMARK>
 VINA RESULT:      -4.1      1.421      3.518
  Name = shuffle_control_esm0_ligand
  12 active torsions:
  status: ('A' for Active; 'I' for Inactive)
    1  A    between atoms: C_1  and  C_2
    2  A    between atoms: C_2  and  C_3
    3  A    between atoms: C_3  and  C_4
    4  A    between atoms: C_4  and  C_5
    5  A    between atoms: C_5  and  C_6
    6  A    between atoms: C_5  and  O_8
    7  A    between atoms: C_6  and  C_7
    8  A    between atoms: O_8  and  C_9
    9  A    between atoms: C_9  and  C_11
   10  A    between atoms: C_12  and  C_13
   11  A    between atoms: C_16  and  O_17
   12  A    between atoms: O_17  and  C_18
                            x       y       z     vdW  Elec       q    Type
                         _______ _______ _______ _____ _____    ______ ____

>  <TORSDO>
F 9

$$$$
shuffle_control_esm0_ligand
 OpenBabel10092621103D

 20 20  0  0  1  0  0  0  0  0999 V2000
    8.9980    4.4120    5.9580 C   0  0  0  0  0  0  0  0  0  0  0  0
    8.4630    4.6750    6.9890 O   0  0  0  0  0  0  0  0  0  0  0  0
    8.8870    5.2520    4.7250 C   0  0  0  0  0  3  0  0  0  0  0  0
    7.9350    5.0290    3.8360 C   0  0  0  0  0  3  0  0  0  0  0  0
    7.8480    5.7440    2.5270 C   0  0  0  0  0  0  0  0  0  0  0  0
    6.6870    5.6430    1.8050 C   0  0  0  0  0  3  0  0  0  0  0  0
    6.5620    6.2620    0.5700 C   0  0  0  0  0  3  0  0  0  0  0  0
    7.6060    7.0050    0.0510 C   0  0  0  0  0  0  0  0  0  0  0  0
    8.7830    7.1150    0.7890 C   0  0  0  0  0  3  0  0  0  0  0  0
    8.9020    6.4910    2.0350 C   0  0  0  0  0  3  0  0  0  0  0  0
    7.5280    7.6140   -1.1520 O   0  0  0  0  0  0  0  0  0  0  0  0
    8.7280    7.9650   -1.8380 C   0  0  0  0  0  1  0  0  0  0  0  0
    9.7610    3.3010    5.8120 O   0  0  0  0  0  0  0  0  0  0  0  0
    9.2860    1.9970    6.1330 C   0  0  2  0  0  3  0  0  0  0  0  0
   10.4120    1.0070    6.3630 C   0  0  0  0  0  2  0  0  0  0  0  0
   10.3910   -0.2340    5.5190 C   0  0  0  0  0  1  0  0  0  0  0  0
    8.4730    1.5070    4.9790 C   0  0  0  0  0  2  0  0  0  0  0  0
    7.0560    1.1820    5.3080 C   0  0  0  0  0  2  0  0  0  0  0  0
    5.4230    3.0800    5.7930 C   0  0  0  0  0  1  0  0  0  0  0  0
    6.0030    2.1240    4.8100 C   0  0  0  0  0  2  0  0  0  0  0  0
  1  2  2  0  0  0  0
  3  1  1  0  0  0  0
  4  3  2  0  0  0  0
  5  4  1  0  0  0  0
  6  5  2  0  0  0  0
  7  6  1  0  0  0  0
  8  7  2  0  0  0  0
  8  9  1  0  0  0  0
  9 10  2  0  0  0  0
 10  5  1  0  0  0  0
 11  8  1  0  0  0  0
 12 11  1  0  0  0  0
 13  1  1  0  0  0  0
 13 14  1  0  0  0  0
 14 17  1  6  0  0  0
 14 15  1  0  0  0  0
 16 15  1  0  0  0  0
 17 18  1  0  0  0  0
 20 18  1  0  0  0  0
 20 19  1  0  0  0  0
M  END
>  <MODEL>
4

>  <REMARK>
 VINA RESULT:      -4.1      1.796      3.317
  Name = shuffle_control_esm0_ligand
  12 active torsions:
  status: ('A' for Active; 'I' for Inactive)
    1  A    between atoms: C_1  and  C_2
    2  A    between atoms: C_2  and  C_3
    3  A    between atoms: C_3  and  C_4
    4  A    between atoms: C_4  and  C_5
    5  A    between atoms: C_5  and  C_6
    6  A    between atoms: C_5  and  O_8
    7  A    between atoms: C_6  and  C_7
    8  A    between atoms: O_8  and  C_9
    9  A    between atoms: C_9  and  C_11
   10  A    between atoms: C_12  and  C_13
   11  A    between atoms: C_16  and  O_17
   12  A    between atoms: O_17  and  C_18
                            x       y       z     vdW  Elec       q    Type
                         _______ _______ _______ _____ _____    ______ ____

>  <TORSDO>
F 9

$$$$
shuffle_control_esm0_ligand
 OpenBabel10092621103D

 20 20  0  0  1  0  0  0  0  0999 V2000
    8.6890    7.1920    3.2520 C   0  0  0  0  0  0  0  0  0  0  0  0
    8.7490    8.0370    4.0890 O   0  0  0  0  0  0  0  0  0  0  0  0
    8.7790    5.7280    3.5390 C   0  0  0  0  0  3  0  0  0  0  0  0
    8.2500    5.2180    4.6370 C   0  0  0  0  0  3  0  0  0  0  0  0
    8.4160    3.7910    5.0450 C   0  0  0  0  0  0  0  0  0  0  0  0
    7.4840    2.8780    4.6210 C   0  0  0  0  0  3  0  0  0  0  0  0
    7.5740    1.5450    4.9940 C   0  0  0  0  0  3  0  0  0  0  0  0
    8.6150    1.1100    5.7930 C   0  0  0  0  0  0  0  0  0  0  0  0
    9.5670    2.0360    6.2170 C   0  0  0  0  0  3  0  0  0  0  0  0
    9.4730    3.3790    5.8340 C   0  0  0  0  0  3  0  0  0  0  0  0
    8.7320   -0.1750    6.1870 O   0  0  0  0  0  0  0  0  0  0  0  0
   10.0300   -0.7380    6.3670 C   0  0  0  0  0  1  0  0  0  0  0  0
    8.5410    7.4980    1.9390 O   0  0  0  0  0  0  0  0  0  0  0  0
    8.2060    6.5210    0.9580 C   0  0  2  0  0  3  0  0  0  0  0  0
    9.0480    6.6440   -0.2980 C   0  0  0  0  0  2  0  0  0  0  0  0
    8.9110    7.9250   -1.0700 C   0  0  0  0  0  1  0  0  0  0  0  0
    6.7770    6.7270    0.5730 C   0  0  0  0  0  2  0  0  0  0  0  0
    5.8880    5.5590    0.8290 C   0  0  0  0  0  2  0  0  0  0  0  0
    5.0330    6.5540    3.0170 C   0  0  0  0  0  1  0  0  0  0  0  0
    5.4230    5.3470    2.2370 C   0  0  0  0  0  2  0  0  0  0  0  0
  1  3  1  0  0  0  0
  1  2  2  0  0  0  0
  3  4  2  0  0  0  0
  4  5  1  0  0  0  0
  5 10  1  0  0  0  0
  6  7  1  0  0  0  0
  6  5  2  0  0  0  0
  7  8  2  0  0  0  0
  8 11  1  0  0  0  0
  8  9  1  0  0  0  0
 10  9  2  0  0  0  0
 11 12  1  0  0  0  0
 13  1  1  0  0  0  0
 14 15  1  6  0  0  0
 14 13  1  0  0  0  0
 16 15  1  0  0  0  0
 17 18  1  0  0  0  0
 17 14  1  0  0  0  0
 18 20  1  0  0  0  0
 20 19  1  0  0  0  0
M  END
>  <MODEL>
5

>  <REMARK>
 VINA RESULT:      -4.1      2.373      7.209
  Name = shuffle_control_esm0_ligand
  12 active torsions:
  status: ('A' for Active; 'I' for Inactive)
    1  A    between atoms: C_1  and  C_2
    2  A    between atoms: C_2  and  C_3
    3  A    between atoms: C_3  and  C_4
    4  A    between atoms: C_4  and  C_5
    5  A    between atoms: C_5  and  C_6
    6  A    between atoms: C_5  and  O_8
    7  A    between atoms: C_6  and  C_7
    8  A    between atoms: O_8  and  C_9
    9  A    between atoms: C_9  and  C_11
   10  A    between atoms: C_12  and  C_13
   11  A    between atoms: C_16  and  O_17
   12  A    between atoms: O_17  and  C_18
                            x       y       z     vdW  Elec       q    Type
                         _______ _______ _______ _____ _____    ______ ____

>  <TORSDO>
F 9

$$$$
shuffle_control_esm0_ligand
 OpenBabel10092621103D

 20 20  0  0  1  0  0  0  0  0999 V2000
    4.0500   -0.8000    5.3950 C   0  0  0  0  0  0  0  0  0  0  0  0
    4.5440   -1.8560    5.6410 O   0  0  0  0  0  0  0  0  0  0  0  0
    4.8320    0.4160    5.0120 C   0  0  0  0  0  3  0  0  0  0  0  0
    6.0370    0.6320    5.5110 C   0  0  0  0  0  3  0  0  0  0  0  0
    6.8140    1.8850    5.2720 C   0  0  0  0  0  0  0  0  0  0  0  0
    6.2100    2.9060    4.5840 C   0  0  0  0  0  3  0  0  0  0  0  0
    6.8940    4.0810    4.3080 C   0  0  0  0  0  3  0  0  0  0  0  0
    8.1980    4.2470    4.7350 C   0  0  0  0  0  0  0  0  0  0  0  0
    8.8100    3.2120    5.4420 C   0  0  0  0  0  3  0  0  0  0  0  0
    8.1130    2.0320    5.7190 C   0  0  0  0  0  3  0  0  0  0  0  0
    8.9030    5.3690    4.4780 O   0  0  0  0  0  0  0  0  0  0  0  0
    9.1430    6.3030    5.5290 C   0  0  0  0  0  1  0  0  0  0  0  0
    2.7100   -0.6080    5.4520 O   0  0  0  0  0  0  0  0  0  0  0  0
    2.0900    0.1810    6.4630 C   0  0  2  0  0  3  0  0  0  0  0  0
    1.5720   -0.6540    7.6200 C   0  0  0  0  0  2  0  0  0  0  0  0
    0.0980   -0.5730    7.8920 C   0  0  0  0  0  1  0  0  0  0  0  0
    0.9240    0.8840    5.8470 C   0  0  0  0  0  2  0  0  0  0  0  0
    1.0450    2.3690    5.8000 C   0  0  0  0  0  2  0  0  0  0  0  0
    2.8600    4.1160    5.4010 C   0  0  0  0  0  1  0  0  0  0  0  0
    2.3610    2.9630    6.1990 C   0  0  0  0  0  2  0  0  0  0  0  0
  1 13  1  0  0  0  0
  1  2  2  0  0  0  0
  3  1  1  0  0  0  0
  3  4  2  0  0  0  0
  5  4  1  0  0  0  0
  5 10  1  0  0  0  0
  6  5  2  0  0  0  0
  7  6  1  0  0  0  0
  7  8  2  0  0  0  0
  8  9  1  0  0  0  0
  9 10  2  0  0  0  0
 11  8  1  0  0  0  0
 11 12  1  0  0  0  0
 13 14  1  0  0  0  0
 14 17  1  6  0  0  0
 14 15  1  0  0  0  0
 15 16  1  0  0  0  0
 18 17  1  0  0  0  0
 18 20  1  0  0  0  0
 19 20  1  0  0  0  0
M  END
>  <MODEL>
6

>  <REMARK>
 VINA RESULT:      -4.0      3.124      5.316
  Name = shuffle_control_esm0_ligand
  12 active torsions:
  status: ('A' for Active; 'I' for Inactive)
    1  A    between atoms: C_1  and  C_2
    2  A    between atoms: C_2  and  C_3
    3  A    between atoms: C_3  and  C_4
    4  A    between atoms: C_4  and  C_5
    5  A    between atoms: C_5  and  C_6
    6  A    between atoms: C_5  and  O_8
    7  A    between atoms: C_6  and  C_7
    8  A    between atoms: O_8  and  C_9
    9  A    between atoms: C_9  and  C_11
   10  A    between atoms: C_12  and  C_13
   11  A    between atoms: C_16  and  O_17
   12  A    between atoms: O_17  and  C_18
                            x       y       z     vdW  Elec       q    Type
                         _______ _______ _______ _____ _____    ______ ____

>  <TORSDO>
F 9

$$$$
shuffle_control_esm0_ligand
 OpenBabel10092621103D

 20 20  0  0  1  0  0  0  0  0999 V2000
    4.8020    5.2700    3.6360 C   0  0  0  0  0  0  0  0  0  0  0  0
    4.0640    6.1110    4.0460 O   0  0  0  0  0  0  0  0  0  0  0  0
    5.4540    4.2410    4.5030 C   0  0  0  0  0  3  0  0  0  0  0  0
    6.4800    3.5350    4.0610 C   0  0  0  0  0  3  0  0  0  0  0  0
    7.0920    2.4060    4.8250 C   0  0  0  0  0  0  0  0  0  0  0  0
    6.2640    1.4400    5.3370 C   0  0  0  0  0  3  0  0  0  0  0  0
    6.7750    0.3850    6.0790 C   0  0  0  0  0  3  0  0  0  0  0  0
    8.1350    0.2830    6.3050 C   0  0  0  0  0  0  0  0  0  0  0  0
    8.9780    1.2610    5.7780 C   0  0  0  0  0  3  0  0  0  0  0  0
    8.4560    2.3200    5.0280 C   0  0  0  0  0  3  0  0  0  0  0  0
    8.6710   -0.7210    7.0310 O   0  0  0  0  0  0  0  0  0  0  0  0
    9.7740   -0.4510    7.8940 C   0  0  0  0  0  1  0  0  0  0  0  0
    5.1250    5.1830    2.3230 O   0  0  0  0  0  0  0  0  0  0  0  0
    5.8230    6.2160    1.6340 C   0  0  2  0  0  3  0  0  0  0  0  0
    5.0460    6.7550    0.4480 C   0  0  0  0  0  2  0  0  0  0  0  0
    3.8170    7.5570    0.7660 C   0  0  0  0  0  1  0  0  0  0  0  0
    7.1030    5.6410    1.1200 C   0  0  0  0  0  2  0  0  0  0  0  0
    8.3340    6.1880    1.7590 C   0  0  0  0  0  3  0  0  0  0  0  0
    9.1200    6.7090   -0.6110 C   0  0  0  0  0  1  0  0  0  0  0  0
    9.4000    6.7200    0.8520 C   0  0  0  0  0  3  0  0  0  0  0  0
  1  2  2  0  0  0  0
  1  3  1  0  0  0  0
  4  3  2  0  0  0  0
  4  5  1  0  0  0  0
  5 10  2  0  0  0  0
  5  6  1  0  0  0  0
  6  7  2  0  0  0  0
  7  8  1  0  0  0  0
  8 11  1  0  0  0  0
  9  8  2  0  0  0  0
 10  9  1  0  0  0  0
 11 12  1  0  0  0  0
 13  1  1  0  0  0  0
 14 15  1  6  0  0  0
 14 13  1  0  0  0  0
 15 16  1  0  0  0  0
 17 14  1  0  0  0  0
 17 18  1  0  0  0  0
 19 20  1  0  0  0  0
 20 18  2  0  0  0  0
M  END
>  <MODEL>
7

>  <REMARK>
 VINA RESULT:      -4.0      2.023      6.808
  Name = shuffle_control_esm0_ligand
  12 active torsions:
  status: ('A' for Active; 'I' for Inactive)
    1  A    between atoms: C_1  and  C_2
    2  A    between atoms: C_2  and  C_3
    3  A    between atoms: C_3  and  C_4
    4  A    between atoms: C_4  and  C_5
    5  A    between atoms: C_5  and  C_6
    6  A    between atoms: C_5  and  O_8
    7  A    between atoms: C_6  and  C_7
    8  A    between atoms: O_8  and  C_9
    9  A    between atoms: C_9  and  C_11
   10  A    between atoms: C_12  and  C_13
   11  A    between atoms: C_16  and  O_17
   12  A    between atoms: O_17  and  C_18
                            x       y       z     vdW  Elec       q    Type
                         _______ _______ _______ _____ _____    ______ ____

>  <TORSDO>
F 9

$$$$
shuffle_control_esm0_ligand
 OpenBabel10092621103D

 20 20  0  0  1  0  0  0  0  0999 V2000
    6.0900   -0.3690    6.7660 C   0  0  0  0  0  0  0  0  0  0  0  0
    6.8500   -0.8860    7.5220 O   0  0  0  0  0  0  0  0  0  0  0  0
    6.1420    1.0770    6.3900 C   0  0  0  0  0  3  0  0  0  0  0  0
    6.3280    1.4460    5.1350 C   0  0  0  0  0  3  0  0  0  0  0  0
    6.5190    2.8660    4.7140 C   0  0  0  0  0  0  0  0  0  0  0  0
    5.4070    3.6210    4.4410 C   0  0  0  0  0  3  0  0  0  0  0  0
    5.5260    4.9370    4.0180 C   0  0  0  0  0  3  0  0  0  0  0  0
    6.7740    5.5150    3.8760 C   0  0  0  0  0  0  0  0  0  0  0  0
    7.9050    4.7510    4.1620 C   0  0  0  0  0  3  0  0  0  0  0  0
    7.7760    3.4250    4.5900 C   0  0  0  0  0  3  0  0  0  0  0  0
    6.9340    6.7880    3.4570 O   0  0  0  0  0  0  0  0  0  0  0  0
    8.2190    7.2270    3.0210 C   0  0  0  0  0  1  0  0  0  0  0  0
    5.0860   -1.0640    6.1770 O   0  0  0  0  0  0  0  0  0  0  0  0
    3.7180   -0.8840    6.5300 C   0  0  2  0  0  3  0  0  0  0  0  0
    3.0610   -2.1710    6.9930 C   0  0  0  0  0  2  0  0  0  0  0  0
    1.8380   -2.0240    7.8510 C   0  0  0  0  0  1  0  0  0  0  0  0
    2.9890   -0.4090    5.3160 C   0  0  0  0  0  2  0  0  0  0  0  0
    2.3930    0.9520    5.4400 C   0  0  0  0  0  2  0  0  0  0  0  0
    0.0330    0.9010    6.4060 C   0  0  0  0  0  1  0  0  0  0  0  0
    0.9170    1.0780    5.2210 C   0  0  0  0  0  2  0  0  0  0  0  0
  1  2  2  0  0  0  0
  3  1  1  0  0  0  0
  4  3  2  0  0  0  0
  5  4  1  0  0  0  0
  6  5  2  0  0  0  0
  7  6  1  0  0  0  0
  8  7  2  0  0  0  0
  8  9  1  0  0  0  0
  9 10  2  0  0  0  0
 10  5  1  0  0  0  0
 11  8  1  0  0  0  0
 12 11  1  0  0  0  0
 13 14  1  0  0  0  0
 13  1  1  0  0  0  0
 14 17  1  6  0  0  0
 14 15  1  0  0  0  0
 15 16  1  0  0  0  0
 17 18  1  0  0  0  0
 20 18  1  0  0  0  0
 20 19  1  0  0  0  0
M  END
>  <MODEL>
8

>  <REMARK>
 VINA RESULT:      -4.0      2.493      4.832
  Name = shuffle_control_esm0_ligand
  12 active torsions:
  status: ('A' for Active; 'I' for Inactive)
    1  A    between atoms: C_1  and  C_2
    2  A    between atoms: C_2  and  C_3
    3  A    between atoms: C_3  and  C_4
    4  A    between atoms: C_4  and  C_5
    5  A    between atoms: C_5  and  C_6
    6  A    between atoms: C_5  and  O_8
    7  A    between atoms: C_6  and  C_7
    8  A    between atoms: O_8  and  C_9
    9  A    between atoms: C_9  and  C_11
   10  A    between atoms: C_12  and  C_13
   11  A    between atoms: C_16  and  O_17
   12  A    between atoms: O_17  and  C_18
                            x       y       z     vdW  Elec       q    Type
                         _______ _______ _______ _____ _____    ______ ____

>  <TORSDO>
F 9

$$$$
shuffle_control_esm0_ligand
 OpenBabel10092621103D

 20 20  0  0  1  0  0  0  0  0999 V2000
    5.4300    0.1770    5.8380 C   0  0  0  0  0  0  0  0  0  0  0  0
    6.0390   -0.6960    6.3730 O   0  0  0  0  0  0  0  0  0  0  0  0
    4.0310    0.5600    6.2000 C   0  0  0  0  0  3  0  0  0  0  0  0
    3.1200   -0.3630    6.4540 C   0  0  0  0  0  3  0  0  0  0  0  0
    1.6780   -0.0520    6.6940 C   0  0  0  0  0  0  0  0  0  0  0  0
    1.0320   -0.7010    7.7150 C   0  0  0  0  0  3  0  0  0  0  0  0
   -0.3130   -0.4730    7.9650 C   0  0  0  0  0  3  0  0  0  0  0  0
   -1.0240    0.4270    7.1920 C   0  0  0  0  0  0  0  0  0  0  0  0
   -0.3660    1.0940    6.1600 C   0  0  0  0  0  3  0  0  0  0  0  0
    0.9920    0.8600    5.9160 C   0  0  0  0  0  3  0  0  0  0  0  0
   -2.3370    0.6700    7.3950 O   0  0  0  0  0  0  0  0  0  0  0  0
   -3.0800   -0.1750    8.2710 C   0  0  0  0  0  1  0  0  0  0  0  0
    5.9660    0.9040    4.8270 O   0  0  0  0  0  0  0  0  0  0  0  0
    6.7430    2.0760    5.0540 C   0  0  2  0  0  3  0  0  0  0  0  0
    6.1150    3.3180    4.4490 C   0  0  0  0  0  2  0  0  0  0  0  0
    7.0590    4.3030    3.8210 C   0  0  0  0  0  1  0  0  0  0  0  0
    8.0750    1.8760    4.4090 C   0  0  0  0  0  2  0  0  0  0  0  0
    9.1260    1.3210    5.3080 C   0  0  0  0  0  2  0  0  0  0  0  0
   10.0760    3.5000    6.2320 C   0  0  0  0  0  1  0  0  0  0  0  0
    9.5180    2.1450    6.4960 C   0  0  0  0  0  2  0  0  0  0  0  0
  1  3  1  0  0  0  0
  1  2  2  0  0  0  0
  3  4  2  0  0  0  0
  4  5  1  0  0  0  0
  5  6  1  0  0  0  0
  6  7  2  0  0  0  0
  8 11  1  0  0  0  0
  8  7  1  0  0  0  0
  9  8  2  0  0  0  0
 10  9  1  0  0  0  0
 10  5  2  0  0  0  0
 11 12  1  0  0  0  0
 13 14  1  0  0  0  0
 13  1  1  0  0  0  0
 14 17  1  6  0  0  0
 15 14  1  0  0  0  0
 16 15  1  0  0  0  0
 17 18  1  0  0  0  0
 18 20  1  0  0  0  0
 19 20  1  0  0  0  0
M  END
>  <MODEL>
9

>  <REMARK>
 VINA RESULT:      -4.0      3.580      7.995
  Name = shuffle_control_esm0_ligand
  12 active torsions:
  status: ('A' for Active; 'I' for Inactive)
    1  A    between atoms: C_1  and  C_2
    2  A    between atoms: C_2  and  C_3
    3  A    between atoms: C_3  and  C_4
    4  A    between atoms: C_4  and  C_5
    5  A    between atoms: C_5  and  C_6
    6  A    between atoms: C_5  and  O_8
    7  A    between atoms: C_6  and  C_7
    8  A    between atoms: O_8  and  C_9
    9  A    between atoms: C_9  and  C_11
   10  A    between atoms: C_12  and  C_13
   11  A    between atoms: C_16  and  O_17
   12  A    between atoms: O_17  and  C_18
                            x       y       z     vdW  Elec       q    Type
                         _______ _______ _______ _____ _____    ______ ____

>  <TORSDO>
F 9

$$$$
