bg33_4_ligand
 OpenBabel10092621173D

 20 20  0  0  1  0  0  0  0  0999 V2000
    9.6410   -4.2670   -1.7330 C   0  0  0  0  0  0  0  0  0  0  0  0
   10.4950   -4.2030   -0.7970 O   0  0  0  0  0  0  0  0  0  0  0  0
    9.4540   -3.2020   -2.7310 C   0  0  0  0  0  3  0  0  0  0  0  0
    9.7430   -1.8530   -2.3390 C   0  0  0  0  0  3  0  0  0  0  0  0
    9.4730   -0.6910   -3.2830 C   0  0  0  0  0  0  0  0  0  0  0  0
    8.5210   -0.7490   -4.2780 C   0  0  0  0  0  3  0  0  0  0  0  0
    8.2850    0.3680   -5.1530 C   0  0  0  0  0  3  0  0  0  0  0  0
    8.9920    1.5760   -5.0220 C   0  0  0  0  0  0  0  0  0  0  0  0
    9.9360    1.6130   -3.9980 C   0  0  0  0  0  3  0  0  0  0  0  0
   10.1580    0.5240   -3.1450 C   0  0  0  0  0  3  0  0  0  0  0  0
    8.7700    2.7000   -5.7930 O   0  0  0  0  0  0  0  0  0  0  0  0
    8.2180    3.8790   -5.1540 C   0  0  0  0  0  1  0  0  0  0  0  0
    8.8830   -5.5000   -1.9580 O   0  0  0  0  0  0  0  0  0  0  0  0
    7.7150   -5.7230   -1.2440 C   0  0  2  0  0  3  0  0  0  0  0  0
    8.1310   -6.9320   -0.3560 C   0  0  0  0  0  2  0  0  0  0  0  0
    6.8910   -7.7710    0.0950 C   0  0  0  0  0  1  0  0  0  0  0  0
    6.5240   -6.0200   -2.2680 C   0  0  0  0  0  2  0  0  0  0  0  0
    7.0380   -6.0060   -3.6850 C   0  0  0  0  0  2  0  0  0  0  0  0
    4.5670   -5.7390   -4.1830 C   0  0  0  0  0  1  0  0  0  0  0  0
    5.9730   -5.5570   -4.6830 C   0  0  0  0  0  2  0  0  0  0  0  0
  1  2  2  0  0  0  0
  3  4  2  0  0  0  0
  3  1  1  0  0  0  0
  5 10  1  0  0  0  0
  5  4  1  0  0  0  0
  6  5  2  0  0  0  0
  7  8  2  0  0  0  0
  7  6  1  0  0  0  0
  8  9  1  0  0  0  0
  9 10  2  0  0  0  0
 11 12  1  0  0  0  0
 11  8  1  0  0  0  0
 13  1  1  0  0  0  0
 13 14  1  0  0  0  0
 14 17  1  6  0  0  0
 14 15  1  0  0  0  0
 15 16  1  0  0  0  0
 18 17  1  0  0  0  0
 20 19  1  0  0  0  0
 20 18  1  0  0  0  0
M  END
>  <MODEL>
1

>  <REMARK>
 VINA RESULT:      -4.0      0.000      0.000
  Name = bg33_4_ligand
  12 active torsions:
  status: ('A' for Active; 'I' for Inactive)
    1  A    between atoms: C_1  and  C_2
    2  A    between atoms: C_2  and  C_3
    3  A    between atoms: C_3  and  C_4
    4  A    between atoms: C_4  and  C_5
    5  A    between atoms: C_5  and  C_6
    6  A    between atoms: C_5  and  O_8
    7  A    between atoms: C_6  and  C_7
    8  A    between atoms: O_8  and  C_9
    9  A    between atoms: C_9  and  C_11
   10  A    between atoms: C_12  and  C_13
   11  A    between atoms: C_16  and  O_17
   12  A    between atoms: O_17  and  C_18
                            x       y       z     vdW  Elec       q    Type
                         _______ _______ _______ _____ _____    ______ ____

>  <TORSDO>
F 9

$$$$
bg33_4_ligand
 OpenBabel10092621173D

 20 20  0  0  1  0  0  0  0  0999 V2000
    9.3670    1.1030   -5.2100 C   0  0  0  0  0  0  0  0  0  0  0  0
   10.1910    2.0520   -5.0490 O   0  0  0  0  0  0  0  0  0  0  0  0
    9.1390    0.0500   -4.2060 C   0  0  0  0  0  3  0  0  0  0  0  0
    9.7300   -1.2360   -4.4320 C   0  0  0  0  0  3  0  0  0  0  0  0
    9.4510   -2.3990   -3.4930 C   0  0  0  0  0  0  0  0  0  0  0  0
    9.7650   -2.3620   -2.1510 C   0  0  0  0  0  3  0  0  0  0  0  0
    9.4840   -3.4770   -1.2870 C   0  0  0  0  0  3  0  0  0  0  0  0
    8.8590   -4.6440   -1.7590 C   0  0  0  0  0  0  0  0  0  0  0  0
    8.5380   -4.6490   -3.1150 C   0  0  0  0  0  3  0  0  0  0  0  0
    8.8090   -3.5580   -3.9520 C   0  0  0  0  0  3  0  0  0  0  0  0
    8.5130   -5.7220   -0.9680 O   0  0  0  0  0  0  0  0  0  0  0  0
    7.1120   -6.0830   -0.8640 C   0  0  0  0  0  1  0  0  0  0  0  0
    8.4720    1.0890   -6.3700 O   0  0  0  0  0  0  0  0  0  0  0  0
    7.1120    1.2880   -6.1830 C   0  0  2  0  0  3  0  0  0  0  0  0
    6.5180    0.3320   -7.2580 C   0  0  0  0  0  2  0  0  0  0  0  0
    7.0740   -1.1220   -7.1090 C   0  0  0  0  0  1  0  0  0  0  0  0
    6.7750    2.8360   -6.4020 C   0  0  0  0  0  2  0  0  0  0  0  0
    6.5100    3.5050   -5.0780 C   0  0  0  0  0  2  0  0  0  0  0  0
    8.4090    5.0180   -5.8070 C   0  0  0  0  0  1  0  0  0  0  0  0
    7.6560    4.4190   -4.6510 C   0  0  0  0  0  2  0  0  0  0  0  0
  1  2  2  0  0  0  0
  1  3  1  0  0  0  0
  4  3  2  0  0  0  0
  4  5  1  0  0  0  0
  5  6  1  0  0  0  0
  6  7  2  0  0  0  0
  8  7  1  0  0  0  0
  8 11  1  0  0  0  0
  9  8  2  0  0  0  0
 10  5  2  0  0  0  0
 10  9  1  0  0  0  0
 11 12  1  0  0  0  0
 13 14  1  0  0  0  0
 13  1  1  0  0  0  0
 14 15  1  6  0  0  0
 15 16  1  0  0  0  0
 17 14  1  0  0  0  0
 17 18  1  0  0  0  0
 18 20  1  0  0  0  0
 19 20  1  0  0  0  0
M  END
>  <MODEL>
2

>  <REMARK>
 VINA RESULT:      -4.0      1.778      7.881
  Name = bg33_4_ligand
  12 active torsions:
  status: ('A' for Active; 'I' for Inactive)
    1  A    between atoms: C_1  and  C_2
    2  A    between atoms: C_2  and  C_3
    3  A    between atoms: C_3  and  C_4
    4  A    between atoms: C_4  and  C_5
    5  A    between atoms: C_5  and  C_6
    6  A    between atoms: C_5  and  O_8
    7  A    between atoms: C_6  and  C_7
    8  A    between atoms: O_8  and  C_9
    9  A    between atoms: C_9  and  C_11
   10  A    between atoms: C_12  and  C_13
   11  A    between atoms: C_16  and  O_17
   12  A    between atoms: O_17  and  C_18
                            x       y       z     vdW  Elec       q    Type
                         _______ _______ _______ _____ _____    ______ ____

>  <TORSDO>
F 9

$$$$
bg33_4_ligand
 OpenBabel10092621173D

 20 20  0  0  1  0  0  0  0  0999 V2000
    7.7130   -0.1690   -7.4970 C   0  0  0  0  0  0  0  0  0  0  0  0
    7.5600   -0.5620   -8.6920 O   0  0  0  0  0  0  0  0  0  0  0  0
    8.0710   -1.0700   -6.3890 C   0  0  0  0  0  3  0  0  0  0  0  0
    8.5870   -0.4860   -5.1850 C   0  0  0  0  0  3  0  0  0  0  0  0
    9.0770   -1.3600   -4.0420 C   0  0  0  0  0  0  0  0  0  0  0  0
    9.5970   -0.8370   -2.8770 C   0  0  0  0  0  3  0  0  0  0  0  0
   10.0470   -1.6900   -1.8100 C   0  0  0  0  0  3  0  0  0  0  0  0
    9.9590   -3.0910   -1.8920 C   0  0  0  0  0  0  0  0  0  0  0  0
    9.4150   -3.5920   -3.0720 C   0  0  0  0  0  3  0  0  0  0  0  0
    8.9720   -2.7570   -4.1060 C   0  0  0  0  0  3  0  0  0  0  0  0
   10.3220   -3.9580   -0.8800 O   0  0  0  0  0  0  0  0  0  0  0  0
   10.1040   -5.3780   -1.0740 C   0  0  0  0  0  1  0  0  0  0  0  0
    7.6840    1.2610   -7.1800 O   0  0  0  0  0  0  0  0  0  0  0  0
    6.4630    1.9100   -7.0690 C   0  0  2  0  0  3  0  0  0  0  0  0
    6.6490    3.0760   -8.0840 C   0  0  0  0  0  2  0  0  0  0  0  0
    5.5460    3.0600   -9.1920 C   0  0  0  0  0  1  0  0  0  0  0  0
    6.2500    2.3680   -5.5520 C   0  0  0  0  0  2  0  0  0  0  0  0
    6.3590    3.8670   -5.4380 C   0  0  0  0  0  2  0  0  0  0  0  0
    8.5710    5.1010   -5.5330 C   0  0  0  0  0  1  0  0  0  0  0  0
    7.6170    4.3010   -4.6900 C   0  0  0  0  0  2  0  0  0  0  0  0
  1 13  1  0  0  0  0
  1  3  1  0  0  0  0
  2  1  2  0  0  0  0
  3  4  2  0  0  0  0
  4  5  1  0  0  0  0
  5  6  1  0  0  0  0
  6  7  2  0  0  0  0
  8  7  1  0  0  0  0
  8 11  1  0  0  0  0
  9  8  2  0  0  0  0
 10  5  2  0  0  0  0
 10  9  1  0  0  0  0
 12 11  1  0  0  0  0
 13 14  1  0  0  0  0
 14 15  1  6  0  0  0
 14 17  1  0  0  0  0
 16 15  1  0  0  0  0
 17 18  1  0  0  0  0
 18 20  1  0  0  0  0
 19 20  1  0  0  0  0
M  END
>  <MODEL>
3

>  <REMARK>
 VINA RESULT:      -3.9      2.566      8.353
  Name = bg33_4_ligand
  12 active torsions:
  status: ('A' for Active; 'I' for Inactive)
    1  A    between atoms: C_1  and  C_2
    2  A    between atoms: C_2  and  C_3
    3  A    between atoms: C_3  and  C_4
    4  A    between atoms: C_4  and  C_5
    5  A    between atoms: C_5  and  C_6
    6  A    between atoms: C_5  and  O_8
    7  A    between atoms: C_6  and  C_7
    8  A    between atoms: O_8  and  C_9
    9  A    between atoms: C_9  and  C_11
   10  A    between atoms: C_12  and  C_13
   11  A    between atoms: C_16  and  O_17
   12  A    between atoms: O_17  and  C_18
                            x       y       z     vdW  Elec       q    Type
                         _______ _______ _______ _____ _____    ______ ____

>  <TORSDO>
F 9

$$$$
bg33_4_ligand
 OpenBabel10092621173D

 20 20  0  0  1  0  0  0  0  0999 V2000
   10.1510    0.6460   -3.0300 C   0  0  0  0  0  0  0  0  0  0  0  0
   10.5690    1.3180   -2.0410 O   0  0  0  0  0  0  0  0  0  0  0  0
    9.4120   -0.6200   -2.8930 C   0  0  0  0  0  3  0  0  0  0  0  0
   10.1400   -1.7850   -2.4810 C   0  0  0  0  0  3  0  0  0  0  0  0
    9.4660   -3.1460   -2.4210 C   0  0  0  0  0  0  0  0  0  0  0  0
    9.3860   -3.8850   -1.2600 C   0  0  0  0  0  3  0  0  0  0  0  0
    8.7370   -5.1680   -1.2330 C   0  0  0  0  0  3  0  0  0  0  0  0
    8.1360   -5.7200   -2.3770 C   0  0  0  0  0  0  0  0  0  0  0  0
    8.2160   -4.9460   -3.5330 C   0  0  0  0  0  3  0  0  0  0  0  0
    8.8450   -3.6940   -3.5520 C   0  0  0  0  0  3  0  0  0  0  0  0
    7.4500   -6.9190   -2.4000 O   0  0  0  0  0  0  0  0  0  0  0  0
    6.1360   -6.9530   -3.0130 C   0  0  0  0  0  1  0  0  0  0  0  0
   10.2560    1.1850   -4.3890 O   0  0  0  0  0  0  0  0  0  0  0  0
    9.1220    1.6790   -5.0160 C   0  0  2  0  0  3  0  0  0  0  0  0
    8.9700    0.6770   -6.1970 C   0  0  0  0  0  2  0  0  0  0  0  0
    7.5950   -0.0650   -6.1530 C   0  0  0  0  0  1  0  0  0  0  0  0
    9.3850    3.1950   -5.4510 C   0  0  0  0  0  2  0  0  0  0  0  0
    8.2050    4.0570   -5.0810 C   0  0  0  0  0  2  0  0  0  0  0  0
    5.7240    3.5350   -5.0840 C   0  0  0  0  0  1  0  0  0  0  0  0
    6.9650    3.7290   -5.9100 C   0  0  0  0  0  2  0  0  0  0  0  0
  1  3  1  0  0  0  0
  1  2  2  0  0  0  0
  3  4  2  0  0  0  0
  4  5  1  0  0  0  0
  5  6  1  0  0  0  0
  6  7  2  0  0  0  0
  8  7  1  0  0  0  0
  9  8  2  0  0  0  0
 10  9  1  0  0  0  0
 10  5  2  0  0  0  0
 11  8  1  0  0  0  0
 12 11  1  0  0  0  0
 13  1  1  0  0  0  0
 14 15  1  6  0  0  0
 14 13  1  0  0  0  0
 15 16  1  0  0  0  0
 17 18  1  0  0  0  0
 17 14  1  0  0  0  0
 20 19  1  0  0  0  0
 20 18  1  0  0  0  0
M  END
>  <MODEL>
4

>  <REMARK>
 VINA RESULT:      -3.9      1.835      7.734
  Name = bg33_4_ligand
  12 active torsions:
  status: ('A' for Active; 'I' for Inactive)
    1  A    between atoms: C_1  and  C_2
    2  A    between atoms: C_2  and  C_3
    3  A    between atoms: C_3  and  C_4
    4  A    between atoms: C_4  and  C_5
    5  A    between atoms: C_5  and  C_6
    6  A    between atoms: C_5  and  O_8
    7  A    between atoms: C_6  and  C_7
    8  A    between atoms: O_8  and  C_9
    9  A    between atoms: C_9  and  C_11
   10  A    between atoms: C_12  and  C_13
   11  A    between atoms: C_16  and  O_17
   12  A    between atoms: O_17  and  C_18
                            x       y       z     vdW  Elec       q    Type
                         _______ _______ _______ _____ _____    ______ ____

>  <TORSDO>
F 9

$$$$
bg33_4_ligand
 OpenBabel10092621173D

 20 20  0  0  1  0  0  0  0  0999 V2000
    9.4250    0.4390   -5.2370 C   0  0  0  0  0  0  0  0  0  0  0  0
   10.1300    0.3070   -6.2830 O   0  0  0  0  0  0  0  0  0  0  0  0
    9.3840   -0.5620   -4.1580 C   0  0  0  0  0  3  0  0  0  0  0  0
    9.2470   -1.9420   -4.5240 C   0  0  0  0  0  3  0  0  0  0  0  0
    9.0920   -3.0190   -3.4620 C   0  0  0  0  0  0  0  0  0  0  0  0
    9.5760   -2.8730   -2.1800 C   0  0  0  0  0  3  0  0  0  0  0  0
    9.4090   -3.9080   -1.1950 C   0  0  0  0  0  3  0  0  0  0  0  0
    8.7290   -5.1050   -1.4830 C   0  0  0  0  0  0  0  0  0  0  0  0
    8.2360   -5.2190   -2.7810 C   0  0  0  0  0  3  0  0  0  0  0  0
    8.3960   -4.2050   -3.7350 C   0  0  0  0  0  3  0  0  0  0  0  0
    8.4880   -6.1080   -0.5660 O   0  0  0  0  0  0  0  0  0  0  0  0
    7.2090   -6.7910   -0.6060 C   0  0  0  0  0  1  0  0  0  0  0  0
    8.7140    1.6930   -4.9780 O   0  0  0  0  0  0  0  0  0  0  0  0
    7.7450    2.1250   -5.8720 C   0  0  2  0  0  3  0  0  0  0  0  0
    7.3380    3.4880   -5.2390 C   0  0  0  0  0  2  0  0  0  0  0  0
    5.8020    3.7480   -5.3670 C   0  0  0  0  0  1  0  0  0  0  0  0
    6.5740    1.0390   -5.9380 C   0  0  0  0  0  2  0  0  0  0  0  0
    6.4850    0.4500   -7.3220 C   0  0  0  0  0  2  0  0  0  0  0  0
    7.4500   -1.8510   -7.7720 C   0  0  0  0  0  1  0  0  0  0  0  0
    6.2620   -1.0610   -7.2960 C   0  0  0  0  0  2  0  0  0  0  0  0
  1 13  1  0  0  0  0
  1  3  1  0  0  0  0
  2  1  2  0  0  0  0
  4  3  2  0  0  0  0
  4  5  1  0  0  0  0
  5  6  1  0  0  0  0
  6  7  2  0  0  0  0
  8  7  1  0  0  0  0
  8 11  1  0  0  0  0
  9  8  2  0  0  0  0
 10  5  2  0  0  0  0
 10  9  1  0  0  0  0
 12 11  1  0  0  0  0
 14 17  1  1  0  0  0
 14 15  1  0  0  0  0
 14 13  1  0  0  0  0
 16 15  1  0  0  0  0
 18 20  1  0  0  0  0
 18 17  1  0  0  0  0
 19 20  1  0  0  0  0
M  END
>  <MODEL>
5

>  <REMARK>
 VINA RESULT:      -3.9      1.879      7.573
  Name = bg33_4_ligand
  12 active torsions:
  status: ('A' for Active; 'I' for Inactive)
    1  A    between atoms: C_1  and  C_2
    2  A    between atoms: C_2  and  C_3
    3  A    between atoms: C_3  and  C_4
    4  A    between atoms: C_4  and  C_5
    5  A    between atoms: C_5  and  C_6
    6  A    between atoms: C_5  and  O_8
    7  A    between atoms: C_6  and  C_7
    8  A    between atoms: O_8  and  C_9
    9  A    between atoms: C_9  and  C_11
   10  A    between atoms: C_12  and  C_13
   11  A    between atoms: C_16  and  O_17
   12  A    between atoms: O_17  and  C_18
                            x       y       z     vdW  Elec       q    Type
                         _______ _______ _______ _____ _____    ______ ____

>  <TORSDO>
F 9

$$$$
bg33_4_ligand
 OpenBabel10092621173D

 20 20  0  0  1  0  0  0  0  0999 V2000
    6.9580   -7.2060   -0.7770 C   0  0  0  0  0  0  0  0  0  0  0  0
    6.5940   -7.6290    0.3610 O   0  0  0  0  0  0  0  0  0  0  0  0
    7.3560   -5.8120   -1.0320 C   0  0  0  0  0  3  0  0  0  0  0  0
    8.5380   -5.5790   -1.8100 C   0  0  0  0  0  3  0  0  0  0  0  0
    9.0670   -4.1700   -2.0240 C   0  0  0  0  0  0  0  0  0  0  0  0
    9.7780   -3.4890   -1.0600 C   0  0  0  0  0  3  0  0  0  0  0  0
   10.2700   -2.1580   -1.2930 C   0  0  0  0  0  3  0  0  0  0  0  0
   10.0700   -1.4970   -2.5170 C   0  0  0  0  0  0  0  0  0  0  0  0
    9.3620   -2.2130   -3.4800 C   0  0  0  0  0  3  0  0  0  0  0  0
    8.8900   -3.5120   -3.2500 C   0  0  0  0  0  3  0  0  0  0  0  0
   10.5660   -0.2440   -2.8200 O   0  0  0  0  0  0  0  0  0  0  0  0
   10.0450    0.4450   -3.9850 C   0  0  0  0  0  1  0  0  0  0  0  0
    7.1460   -8.1420   -1.8890 O   0  0  0  0  0  0  0  0  0  0  0  0
    6.2360   -8.1500   -2.9350 C   0  0  2  0  0  3  0  0  0  0  0  0
    5.6790   -9.6000   -2.8380 C   0  0  0  0  0  2  0  0  0  0  0  0
    4.5610   -9.8610   -3.9000 C   0  0  0  0  0  1  0  0  0  0  0  0
    7.0030   -7.8140   -4.2970 C   0  0  0  0  0  2  0  0  0  0  0  0
    6.3600   -6.6360   -4.9820 C   0  0  0  0  0  2  0  0  0  0  0  0
    4.1180   -5.5110   -4.6170 C   0  0  0  0  0  1  0  0  0  0  0  0
    5.4680   -5.8320   -4.0380 C   0  0  0  0  0  2  0  0  0  0  0  0
  1  2  2  0  0  0  0
  3  1  1  0  0  0  0
  4  3  2  0  0  0  0
  5  4  1  0  0  0  0
  5  6  1  0  0  0  0
  7  6  2  0  0  0  0
  8  7  1  0  0  0  0
  9 10  1  0  0  0  0
  9  8  2  0  0  0  0
 10  5  2  0  0  0  0
 11  8  1  0  0  0  0
 12 11  1  0  0  0  0
 13  1  1  0  0  0  0
 14 17  1  6  0  0  0
 14 15  1  0  0  0  0
 14 13  1  0  0  0  0
 16 15  1  0  0  0  0
 18 17  1  0  0  0  0
 18 20  1  0  0  0  0
 19 20  1  0  0  0  0
M  END
>  <MODEL>
6

>  <REMARK>
 VINA RESULT:      -3.8      2.182      3.859
  Name = bg33_4_ligand
  12 active torsions:
  status: ('A' for Active; 'I' for Inactive)
    1  A    between atoms: C_1  and  C_2
    2  A    between atoms: C_2  and  C_3
    3  A    between atoms: C_3  and  C_4
    4  A    between atoms: C_4  and  C_5
    5  A    between atoms: C_5  and  C_6
    6  A    between atoms: C_5  and  O_8
    7  A    between atoms: C_6  and  C_7
    8  A    between atoms: O_8  and  C_9
    9  A    between atoms: C_9  and  C_11
   10  A    between atoms: C_12  and  C_13
   11  A    between atoms: C_16  and  O_17
   12  A    between atoms: O_17  and  C_18
                            x       y       z     vdW  Elec       q    Type
                         _______ _______ _______ _____ _____    ______ ____

>  <TORSDO>
F 9

$$$$
bg33_4_ligand
 OpenBabel10092621173D

 20 20  0  0  1  0  0  0  0  0999 V2000
    9.5010   -4.6320   -1.1740 C   0  0  0  0  0  0  0  0  0  0  0  0
   10.5410   -5.2080   -0.7350 O   0  0  0  0  0  0  0  0  0  0  0  0
    9.5370   -3.5310   -2.1500 C   0  0  0  0  0  3  0  0  0  0  0  0
    9.8060   -2.2090   -1.6660 C   0  0  0  0  0  3  0  0  0  0  0  0
    9.7540   -1.0100   -2.6000 C   0  0  0  0  0  0  0  0  0  0  0  0
   10.5390    0.1080   -2.4170 C   0  0  0  0  0  3  0  0  0  0  0  0
   10.4710    1.2250   -3.3210 C   0  0  0  0  0  3  0  0  0  0  0  0
    9.6220    1.2230   -4.4410 C   0  0  0  0  0  0  0  0  0  0  0  0
    8.8520    0.0750   -4.6120 C   0  0  0  0  0  3  0  0  0  0  0  0
    8.9260   -1.0130   -3.7310 C   0  0  0  0  0  3  0  0  0  0  0  0
    9.5550    2.2390   -5.3740 O   0  0  0  0  0  0  0  0  0  0  0  0
    8.4170    3.1370   -5.3390 C   0  0  0  0  0  1  0  0  0  0  0  0
    8.1720   -5.1460   -0.8320 O   0  0  0  0  0  0  0  0  0  0  0  0
    7.7580   -6.3640   -1.3490 C   0  0  2  0  0  3  0  0  0  0  0  0
    6.6290   -5.9120   -2.3200 C   0  0  0  0  0  2  0  0  0  0  0  0
    6.1330   -7.0900   -3.2200 C   0  0  0  0  0  1  0  0  0  0  0  0
    7.2750   -7.3040   -0.1500 C   0  0  0  0  0  2  0  0  0  0  0  0
    8.4270   -8.1300    0.3640 C   0  0  0  0  0  2  0  0  0  0  0  0
    8.6350   -8.9270    2.7610 C   0  0  0  0  0  1  0  0  0  0  0  0
    7.9890   -9.1410    1.4200 C   0  0  0  0  0  2  0  0  0  0  0  0
  1 13  1  0  0  0  0
  1  2  2  0  0  0  0
  3  4  2  0  0  0  0
  3  1  1  0  0  0  0
  5  6  1  0  0  0  0
  5  4  1  0  0  0  0
  7  6  2  0  0  0  0
  8  7  1  0  0  0  0
  9  8  2  0  0  0  0
  9 10  1  0  0  0  0
 10  5  2  0  0  0  0
 11 12  1  0  0  0  0
 11  8  1  0  0  0  0
 14 15  1  6  0  0  0
 14 13  1  0  0  0  0
 14 17  1  0  0  0  0
 16 15  1  0  0  0  0
 17 18  1  0  0  0  0
 18 20  1  0  0  0  0
 20 19  1  0  0  0  0
M  END
>  <MODEL>
7

>  <REMARK>
 VINA RESULT:      -3.8      1.251      3.249
  Name = bg33_4_ligand
  12 active torsions:
  status: ('A' for Active; 'I' for Inactive)
    1  A    between atoms: C_1  and  C_2
    2  A    between atoms: C_2  and  C_3
    3  A    between atoms: C_3  and  C_4
    4  A    between atoms: C_4  and  C_5
    5  A    between atoms: C_5  and  C_6
    6  A    between atoms: C_5  and  O_8
    7  A    between atoms: C_6  and  C_7
    8  A    between atoms: O_8  and  C_9
    9  A    between atoms: C_9  and  C_11
   10  A    between atoms: C_12  and  C_13
   11  A    between atoms: C_16  and  O_17
   12  A    between atoms: O_17  and  C_18
                            x       y       z     vdW  Elec       q    Type
                         _______ _______ _______ _____ _____    ______ ____

>  <TORSDO>
F 9

$$$$
bg33_4_ligand
 OpenBabel10092621173D

 20 20  0  0  1  0  0  0  0  0999 V2000
    6.9130   -8.9620   -3.5660 C   0  0  0  0  0  0  0  0  0  0  0  0
    7.4890   -9.5150   -4.5510 O   0  0  0  0  0  0  0  0  0  0  0  0
    5.9210   -9.6470   -2.7210 C   0  0  0  0  0  3  0  0  0  0  0  0
    6.3840  -10.6800   -1.8410 C   0  0  0  0  0  3  0  0  0  0  0  0
    5.4040  -11.5010   -1.0180 C   0  0  0  0  0  0  0  0  0  0  0  0
    5.7440  -12.7080   -0.4440 C   0  0  0  0  0  3  0  0  0  0  0  0
    4.7960  -13.4590    0.3330 C   0  0  0  0  0  3  0  0  0  0  0  0
    3.4900  -12.9930    0.5650 C   0  0  0  0  0  0  0  0  0  0  0  0
    3.1780  -11.7640   -0.0110 C   0  0  0  0  0  3  0  0  0  0  0  0
    4.1070  -11.0330   -0.7640 C   0  0  0  0  0  3  0  0  0  0  0  0
    2.5550  -13.6410    1.3490 O   0  0  0  0  0  0  0  0  0  0  0  0
    2.8060  -13.7570    2.7730 C   0  0  0  0  0  1  0  0  0  0  0  0
    7.3260   -7.6290   -3.1220 O   0  0  0  0  0  0  0  0  0  0  0  0
    6.3810   -6.7650   -2.5890 C   0  0  2  0  0  3  0  0  0  0  0  0
    6.0590   -5.8720   -3.8230 C   0  0  0  0  0  2  0  0  0  0  0  0
    4.5270   -5.8410   -4.1310 C   0  0  0  0  0  1  0  0  0  0  0  0
    7.0230   -5.9890   -1.3470 C   0  0  0  0  0  2  0  0  0  0  0  0
    7.8140   -6.9420   -0.4880 C   0  0  0  0  0  2  0  0  0  0  0  0
    7.6750   -8.7690    1.2630 C   0  0  0  0  0  1  0  0  0  0  0  0
    6.9160   -7.8630    0.3340 C   0  0  0  0  0  2  0  0  0  0  0  0
  1 13  1  0  0  0  0
  1  3  1  0  0  0  0
  2  1  2  0  0  0  0
  3  4  2  0  0  0  0
  4  5  1  0  0  0  0
  5 10  2  0  0  0  0
  5  6  1  0  0  0  0
  6  7  2  0  0  0  0
  7  8  1  0  0  0  0
  8 11  1  0  0  0  0
  9  8  2  0  0  0  0
 10  9  1  0  0  0  0
 11 12  1  0  0  0  0
 13 14  1  0  0  0  0
 14 15  1  6  0  0  0
 14 17  1  0  0  0  0
 16 15  1  0  0  0  0
 17 18  1  0  0  0  0
 18 20  1  0  0  0  0
 20 19  1  0  0  0  0
M  END
>  <MODEL>
8

>  <REMARK>
 VINA RESULT:      -3.8      5.546     10.875
  Name = bg33_4_ligand
  12 active torsions:
  status: ('A' for Active; 'I' for Inactive)
    1  A    between atoms: C_1  and  C_2
    2  A    between atoms: C_2  and  C_3
    3  A    between atoms: C_3  and  C_4
    4  A    between atoms: C_4  and  C_5
    5  A    between atoms: C_5  and  C_6
    6  A    between atoms: C_5  and  O_8
    7  A    between atoms: C_6  and  C_7
    8  A    between atoms: O_8  and  C_9
    9  A    between atoms: C_9  and  C_11
   10  A    between atoms: C_12  and  C_13
   11  A    between atoms: C_16  and  O_17
   12  A    between atoms: O_17  and  C_18
                            x       y       z     vdW  Elec       q    Type
                         _______ _______ _______ _____ _____    ______ ____

>  <TORSDO>
F 9

$$$$
bg33_4_ligand
 OpenBabel10092621173D

 20 20  0  0  1  0  0  0  0  0999 V2000
    5.3220   -6.3820   -3.8700 C   0  0  0  0  0  0  0  0  0  0  0  0
    5.3030   -7.6420   -3.7280 O   0  0  0  0  0  0  0  0  0  0  0  0
    4.3290   -5.6440   -4.6680 C   0  0  0  0  0  3  0  0  0  0  0  0
    4.7030   -5.2220   -5.9860 C   0  0  0  0  0  3  0  0  0  0  0  0
    3.7680   -4.3650   -6.8250 C   0  0  0  0  0  0  0  0  0  0  0  0
    3.7450   -2.9890   -6.7410 C   0  0  0  0  0  3  0  0  0  0  0  0
    2.8530   -2.2050   -7.5520 C   0  0  0  0  0  3  0  0  0  0  0  0
    1.9800   -2.7980   -8.4820 C   0  0  0  0  0  0  0  0  0  0  0  0
    2.0360   -4.1880   -8.5580 C   0  0  0  0  0  3  0  0  0  0  0  0
    2.9110   -4.9470   -7.7700 C   0  0  0  0  0  3  0  0  0  0  0  0
    1.1430   -2.0960   -9.3260 O   0  0  0  0  0  0  0  0  0  0  0  0
   -0.1750   -1.7270   -8.8460 C   0  0  0  0  0  1  0  0  0  0  0  0
    6.2700   -5.5660   -3.1070 O   0  0  0  0  0  0  0  0  0  0  0  0
    7.3860   -6.1660   -2.5440 C   0  0  2  0  0  3  0  0  0  0  0  0
    7.1120   -5.9470   -1.0270 C   0  0  0  0  0  2  0  0  0  0  0  0
    6.9100   -7.3030   -0.2750 C   0  0  0  0  0  1  0  0  0  0  0  0
    8.7020   -5.4470   -3.0990 C   0  0  0  0  0  2  0  0  0  0  0  0
    8.3320   -4.2270   -3.9020 C   0  0  0  0  0  2  0  0  0  0  0  0
    9.6440   -3.0810   -2.0600 C   0  0  0  0  0  1  0  0  0  0  0  0
    9.1070   -2.9870   -3.4610 C   0  0  0  0  0  2  0  0  0  0  0  0
  1  2  2  0  0  0  0
  1 13  1  0  0  0  0
  3  1  1  0  0  0  0
  4  3  2  0  0  0  0
  5  6  1  0  0  0  0
  5  4  1  0  0  0  0
  7  6  2  0  0  0  0
  8  7  1  0  0  0  0
  9  8  2  0  0  0  0
  9 10  1  0  0  0  0
 10  5  2  0  0  0  0
 11 12  1  0  0  0  0
 11  8  1  0  0  0  0
 13 14  1  0  0  0  0
 14 17  1  6  0  0  0
 14 15  1  0  0  0  0
 15 16  1  0  0  0  0
 18 20  1  0  0  0  0
 18 17  1  0  0  0  0
 20 19  1  0  0  0  0
M  END
>  <MODEL>
9

>  <REMARK>
 VINA RESULT:      -3.7      4.041      6.650
  Name = bg33_4_ligand
  12 active torsions:
  status: ('A' for Active; 'I' for Inactive)
    1  A    between atoms: C_1  and  C_2
    2  A    between atoms: C_2  and  C_3
    3  A    between atoms: C_3  and  C_4
    4  A    between atoms: C_4  and  C_5
    5  A    between atoms: C_5  and  C_6
    6  A    between atoms: C_5  and  O_8
    7  A    between atoms: C_6  and  C_7
    8  A    between atoms: O_8  and  C_9
    9  A    between atoms: C_9  and  C_11
   10  A    between atoms: C_12  and  C_13
   11  A    between atoms: C_16  and  O_17
   12  A    between atoms: O_17  and  C_18
                            x       y       z     vdW  Elec       q    Type
                         _______ _______ _______ _____ _____    ______ ____

>  <TORSDO>
F 9

$$$$
