bgox31_4_ligand
     RDKit          3D

 29 30  0  0  0  0  0  0  0  0999 V2000
   -0.5180  -11.1034   -2.6502 C   0  0  0  0  0  0  0  0  0  0  0  0
    0.7367  -10.4728   -3.0221 O   0  0  0  0  0  0  0  0  0  0  0  0
    1.8449  -10.9278   -2.3526 C   0  0  0  0  0  0  0  0  0  0  0  0
    3.0354  -10.2785   -2.5353 C   0  0  0  0  0  0  0  0  0  0  0  0
    4.2375  -10.7341   -1.8830 C   0  0  0  0  0  0  0  0  0  0  0  0
    4.1122  -11.8278   -1.0145 C   0  0  0  0  0  0  0  0  0  0  0  0
    5.3402  -12.2623   -0.3264 C   0  0  0  0  0  0  0  0  0  0  0  0
    6.2730  -12.7218   -1.0652 O   0  0  0  0  0  0  0  0  0  0  0  0
    5.6479  -11.9818    1.0781 C   0  0  0  0  0  0  0  0  0  0  0  0
    6.9569  -12.2449    1.5034 C   0  0  0  0  0  0  0  0  0  0  0  0
    7.2791  -12.0762    2.8681 C   0  0  0  0  0  0  0  0  0  0  0  0
    6.3012  -11.7597    3.7571 C   0  0  0  0  0  0  0  0  0  0  0  0
    4.9878  -11.5565    3.3695 C   0  0  0  0  0  0  0  0  0  0  0  0
    4.6325  -11.6943    2.0125 C   0  0  0  0  0  0  0  0  0  0  0  0
    2.8959  -12.4812   -0.8625 C   0  0  0  0  0  0  0  0  0  0  0  0
    2.8470  -13.5861    0.0050 O   0  0  0  0  0  0  0  0  0  0  0  0
    1.7304  -12.0416   -1.5180 C   0  0  0  0  0  0  0  0  0  0  0  0
   -1.3573  -10.4896   -3.0092 H   0  0  0  0  0  0  0  0  0  0  0  0
   -0.5744  -12.1036   -3.1045 H   0  0  0  0  0  0  0  0  0  0  0  0
   -0.5722  -11.1943   -1.5554 H   0  0  0  0  0  0  0  0  0  0  0  0
    3.0759   -9.3954   -3.1900 H   0  0  0  0  0  0  0  0  0  0  0  0
    5.2078  -10.2465   -2.0585 H   0  0  0  0  0  0  0  0  0  0  0  0
    7.7214  -12.5776    0.7858 H   0  0  0  0  0  0  0  0  0  0  0  0
    8.3172  -12.2006    3.2100 H   0  0  0  0  0  0  0  0  0  0  0  0
    6.5623  -11.6615    4.8212 H   0  0  0  0  0  0  0  0  0  0  0  0
    4.2258  -11.2890    4.1163 H   0  0  0  0  0  0  0  0  0  0  0  0
    3.5870  -11.5801    1.6901 H   0  0  0  0  0  0  0  0  0  0  0  0
    1.9962  -14.0749    0.1365 H   0  0  0  0  0  0  0  0  0  0  0  0
    0.7676  -12.5550   -1.3784 H   0  0  0  0  0  0  0  0  0  0  0  0
  2  1  1  0
  3  2  1  0
  4  3  1  0
  5  4  2  0
  6  5  1  0
  7  6  1  0
  8  7  2  0
  9  7  1  0
 10  9  2  0
 11 10  1  0
 12 11  2  0
 13 12  1  0
 14 13  2  0
 14  9  1  0
 15  6  2  0
 16 15  1  0
 17 15  1  0
 17  3  2  0
  1 18  1  0
  1 19  1  0
  1 20  1  0
  4 21  1  0
  5 22  1  0
 10 23  1  0
 11 24  1  0
 12 25  1  0
 13 26  1  0
 14 27  1  0
 16 28  1  0
 17 29  1  0
M  END
$$$$
