bgox31_4_ligand
 OpenBabel10092621253D

 18 19  0  0  0  0  0  0  0  0999 V2000
   -1.3220   -2.0720   -8.2800 C   0  0  0  0  0  0  0  0  0  0  0  0
   -2.6500   -1.7510   -8.2110 C   0  0  0  0  0  3  0  0  0  0  0  0
   -3.6480   -2.7650   -7.9780 C   0  0  0  0  0  3  0  0  0  0  0  0
   -3.1980   -4.0900   -7.8900 C   0  0  0  0  0  0  0  0  0  0  0  0
   -1.8420   -4.3860   -7.9440 C   0  0  0  0  0  0  0  0  0  0  0  0
   -0.8710   -3.3890   -8.1520 C   0  0  0  0  0  3  0  0  0  0  0  0
   -0.1790   -0.6880   -9.8550 C   0  0  0  0  0  1  0  0  0  0  0  0
   -0.4100   -1.0660   -8.4710 O   0  0  0  0  0  0  0  0  0  0  0  0
   -4.2300   -5.1210   -7.6880 C   0  0  0  0  0  0  0  0  0  0  0  0
   -4.4260   -5.9270   -8.6580 O   0  0  0  0  0  0  0  0  0  0  0  0
   -4.8560   -5.4290   -6.4000 C   0  0  0  0  0  0  0  0  0  0  0  0
   -4.1870   -6.3430   -5.5740 C   0  0  0  0  0  3  0  0  0  0  0  0
   -4.7940   -6.7400   -4.3620 C   0  0  0  0  0  3  0  0  0  0  0  0
   -6.0490   -6.3100   -4.0650 C   0  0  0  0  0  3  0  0  0  0  0  0
   -6.7530   -5.4560   -4.8950 C   0  0  0  0  0  3  0  0  0  0  0  0
   -6.1720   -5.0210   -6.1020 C   0  0  0  0  0  3  0  0  0  0  0  0
   -1.4580   -5.7330   -7.8240 O   0  0  0  0  0  0  0  0  0  0  0  0
   -1.0250   -6.1950   -8.5860 H   0  0  0  0  0  0  0  0  0  0  0  0
  1  2  2  0  0  0  0
  1  6  1  0  0  0  0
  2  3  1  0  0  0  0
  3  4  2  0  0  0  0
  4  9  1  0  0  0  0
  5  4  1  0  0  0  0
  5 17  1  0  0  0  0
  6  5  2  0  0  0  0
  7  8  1  0  0  0  0
  8  1  1  0  0  0  0
  9 11  1  0  0  0  0
 10  9  2  0  0  0  0
 11 16  2  0  0  0  0
 11 12  1  0  0  0  0
 12 13  2  0  0  0  0
 13 14  1  0  0  0  0
 15 14  2  0  0  0  0
 16 15  1  0  0  0  0
 18 17  1  0  0  0  0
M  END
>  <MODEL>
1

>  <REMARK>
 VINA RESULT:      -4.0      0.000      0.000
  Name = bgox31_4_ligand
  5 active torsions:
  status: ('A' for Active; 'I' for Inactive)
    1  A    between atoms: C_1  and  O_2
    2  A    between atoms: O_2  and  C_3
    3  A    between atoms: C_6  and  C_7
    4  A    between atoms: C_7  and  C_9
    5  A    between atoms: C_15  and  O_16
                            x       y       z     vdW  Elec       q    Type
                         _______ _______ _______ _____ _____    ______ ____

>  <TORSDO>
F 4

$$$$
bgox31_4_ligand
 OpenBabel10092621253D

 18 19  0  0  0  0  0  0  0  0999 V2000
   -6.0110   -5.9050   -4.8270 C   0  0  0  0  0  0  0  0  0  0  0  0
   -6.6250   -5.0100   -5.6600 C   0  0  0  0  0  3  0  0  0  0  0  0
   -6.0020   -4.5960   -6.8920 C   0  0  0  0  0  3  0  0  0  0  0  0
   -4.7230   -5.1060   -7.1600 C   0  0  0  0  0  0  0  0  0  0  0  0
   -4.1330   -6.0280   -6.3080 C   0  0  0  0  0  0  0  0  0  0  0  0
   -4.7540   -6.4430   -5.1150 C   0  0  0  0  0  3  0  0  0  0  0  0
   -5.8700   -7.0800   -2.7530 C   0  0  0  0  0  1  0  0  0  0  0  0
   -6.6610   -6.2910   -3.6820 O   0  0  0  0  0  0  0  0  0  0  0  0
   -4.0830   -4.6470   -8.4050 C   0  0  0  0  0  0  0  0  0  0  0  0
   -3.8910   -5.5320   -9.3040 O   0  0  0  0  0  0  0  0  0  0  0  0
   -3.8810   -3.2430   -8.7670 C   0  0  0  0  0  0  0  0  0  0  0  0
   -3.9710   -2.9210  -10.1270 C   0  0  0  0  0  3  0  0  0  0  0  0
   -3.6960   -1.5970  -10.5360 C   0  0  0  0  0  3  0  0  0  0  0  0
   -3.2580   -0.6880   -9.6250 C   0  0  0  0  0  3  0  0  0  0  0  0
   -3.1030   -1.0000   -8.2860 C   0  0  0  0  0  3  0  0  0  0  0  0
   -3.3880   -2.3050   -7.8370 C   0  0  0  0  0  3  0  0  0  0  0  0
   -2.8590   -6.5180   -6.6490 O   0  0  0  0  0  0  0  0  0  0  0  0
   -2.3920   -6.1660   -7.4480 H   0  0  0  0  0  0  0  0  0  0  0  0
  1  8  1  0  0  0  0
  2  1  2  0  0  0  0
  3  2  1  0  0  0  0
  4  3  2  0  0  0  0
  4  5  1  0  0  0  0
  5  6  2  0  0  0  0
  6  1  1  0  0  0  0
  8  7  1  0  0  0  0
  9  4  1  0  0  0  0
 10  9  2  0  0  0  0
 11  9  1  0  0  0  0
 11 16  1  0  0  0  0
 12 11  2  0  0  0  0
 13 12  1  0  0  0  0
 13 14  2  0  0  0  0
 14 15  1  0  0  0  0
 15 16  2  0  0  0  0
 17  5  1  0  0  0  0
 18 17  1  0  0  0  0
M  END
>  <MODEL>
2

>  <REMARK>
 VINA RESULT:      -3.9      2.045      5.946
  Name = bgox31_4_ligand
  5 active torsions:
  status: ('A' for Active; 'I' for Inactive)
    1  A    between atoms: C_1  and  O_2
    2  A    between atoms: O_2  and  C_3
    3  A    between atoms: C_6  and  C_7
    4  A    between atoms: C_7  and  C_9
    5  A    between atoms: C_15  and  O_16
                            x       y       z     vdW  Elec       q    Type
                         _______ _______ _______ _____ _____    ______ ____

>  <TORSDO>
F 4

$$$$
bgox31_4_ligand
 OpenBabel10092621253D

 18 19  0  0  0  0  0  0  0  0999 V2000
    5.6640   -8.0770   -2.5580 C   0  0  0  0  0  0  0  0  0  0  0  0
    6.6700   -7.5600   -3.3290 C   0  0  0  0  0  3  0  0  0  0  0  0
    6.5670   -6.2380   -3.8940 C   0  0  0  0  0  3  0  0  0  0  0  0
    5.3700   -5.5420   -3.6670 C   0  0  0  0  0  0  0  0  0  0  0  0
    4.3740   -6.0820   -2.8650 C   0  0  0  0  0  0  0  0  0  0  0  0
    4.4890   -7.3660   -2.3000 C   0  0  0  0  0  3  0  0  0  0  0  0
    4.6020  -10.0860   -1.8260 C   0  0  0  0  0  1  0  0  0  0  0  0
    5.8260   -9.3270   -2.0170 O   0  0  0  0  0  0  0  0  0  0  0  0
    5.2620   -4.2070   -4.2800 C   0  0  0  0  0  0  0  0  0  0  0  0
    4.4090   -4.0800   -5.2210 O   0  0  0  0  0  0  0  0  0  0  0  0
    5.8730   -2.9920   -3.7360 C   0  0  0  0  0  0  0  0  0  0  0  0
    5.9240   -1.8760   -4.5820 C   0  0  0  0  0  3  0  0  0  0  0  0
    6.5830   -0.7090   -4.1350 C   0  0  0  0  0  3  0  0  0  0  0  0
    7.2360   -0.7190   -2.9430 C   0  0  0  0  0  3  0  0  0  0  0  0
    7.2510   -1.8300   -2.1180 C   0  0  0  0  0  3  0  0  0  0  0  0
    6.5860   -3.0050   -2.5200 C   0  0  0  0  0  3  0  0  0  0  0  0
    3.2100   -5.3200   -2.6590 O   0  0  0  0  0  0  0  0  0  0  0  0
    2.3330   -5.7700   -2.5700 H   0  0  0  0  0  0  0  0  0  0  0  0
  1  6  1  0  0  0  0
  1  8  1  0  0  0  0
  2  1  2  0  0  0  0
  3  4  2  0  0  0  0
  3  2  1  0  0  0  0
  4  5  1  0  0  0  0
  5 17  1  0  0  0  0
  5  6  2  0  0  0  0
  8  7  1  0  0  0  0
  9 11  1  0  0  0  0
  9  4  1  0  0  0  0
 10  9  2  0  0  0  0
 11 16  1  0  0  0  0
 12 13  1  0  0  0  0
 12 11  2  0  0  0  0
 13 14  2  0  0  0  0
 14 15  1  0  0  0  0
 16 15  2  0  0  0  0
 17 18  1  0  0  0  0
M  END
>  <MODEL>
3

>  <REMARK>
 VINA RESULT:      -3.9      9.128     11.444
  Name = bgox31_4_ligand
  5 active torsions:
  status: ('A' for Active; 'I' for Inactive)
    1  A    between atoms: C_1  and  O_2
    2  A    between atoms: O_2  and  C_3
    3  A    between atoms: C_6  and  C_7
    4  A    between atoms: C_7  and  C_9
    5  A    between atoms: C_15  and  O_16
                            x       y       z     vdW  Elec       q    Type
                         _______ _______ _______ _____ _____    ______ ____

>  <TORSDO>
F 4

$$$$
bgox31_4_ligand
 OpenBabel10092621253D

 18 19  0  0  0  0  0  0  0  0999 V2000
    5.1360   -8.2670   -2.9340 C   0  0  0  0  0  0  0  0  0  0  0  0
    6.1160   -7.8700   -3.8030 C   0  0  0  0  0  3  0  0  0  0  0  0
    6.1610   -6.5190   -4.3040 C   0  0  0  0  0  3  0  0  0  0  0  0
    5.1250   -5.6610   -3.9080 C   0  0  0  0  0  0  0  0  0  0  0  0
    4.1540   -6.0840   -3.0100 C   0  0  0  0  0  0  0  0  0  0  0  0
    4.1280   -7.3990   -2.5090 C   0  0  0  0  0  3  0  0  0  0  0  0
    3.8570  -10.1340   -2.1720 C   0  0  0  0  0  1  0  0  0  0  0  0
    5.1580   -9.5550   -2.4620 O   0  0  0  0  0  0  0  0  0  0  0  0
    5.1620   -4.2930   -4.4550 C   0  0  0  0  0  0  0  0  0  0  0  0
    4.2980   -4.0170   -5.3530 O   0  0  0  0  0  0  0  0  0  0  0  0
    5.9360   -3.1910   -3.8820 C   0  0  0  0  0  0  0  0  0  0  0  0
    6.5190   -3.4120   -2.6270 C   0  0  0  0  0  3  0  0  0  0  0  0
    7.2000   -2.3500   -1.9930 C   0  0  0  0  0  3  0  0  0  0  0  0
    7.1950   -1.1140   -2.5580 C   0  0  0  0  0  3  0  0  0  0  0  0
    6.5720   -0.8570   -3.7670 C   0  0  0  0  0  3  0  0  0  0  0  0
    5.9020   -1.8960   -4.4400 C   0  0  0  0  0  3  0  0  0  0  0  0
    3.1590   -5.1640   -2.6360 O   0  0  0  0  0  0  0  0  0  0  0  0
    3.1160   -4.8320   -1.7030 H   0  0  0  0  0  0  0  0  0  0  0  0
  1  6  1  0  0  0  0
  1  8  1  0  0  0  0
  2  1  2  0  0  0  0
  3  4  2  0  0  0  0
  3  2  1  0  0  0  0
  4  5  1  0  0  0  0
  5 17  1  0  0  0  0
  5  6  2  0  0  0  0
  8  7  1  0  0  0  0
  9  4  1  0  0  0  0
  9 11  1  0  0  0  0
 10  9  2  0  0  0  0
 11 12  1  0  0  0  0
 12 13  2  0  0  0  0
 14 13  1  0  0  0  0
 15 14  2  0  0  0  0
 16 11  2  0  0  0  0
 16 15  1  0  0  0  0
 17 18  1  0  0  0  0
M  END
>  <MODEL>
4

>  <REMARK>
 VINA RESULT:      -3.8      8.947     11.177
  Name = bgox31_4_ligand
  5 active torsions:
  status: ('A' for Active; 'I' for Inactive)
    1  A    between atoms: C_1  and  O_2
    2  A    between atoms: O_2  and  C_3
    3  A    between atoms: C_6  and  C_7
    4  A    between atoms: C_7  and  C_9
    5  A    between atoms: C_15  and  O_16
                            x       y       z     vdW  Elec       q    Type
                         _______ _______ _______ _____ _____    ______ ____

>  <TORSDO>
F 4

$$$$
bgox31_4_ligand
 OpenBabel10092621253D

 18 19  0  0  0  0  0  0  0  0999 V2000
    3.8940   -7.5340   -5.3420 C   0  0  0  0  0  0  0  0  0  0  0  0
    5.2600   -7.4850   -5.4120 C   0  0  0  0  0  3  0  0  0  0  0  0
    6.0210   -6.6680   -4.5010 C   0  0  0  0  0  3  0  0  0  0  0  0
    5.2940   -5.8860   -3.5910 C   0  0  0  0  0  0  0  0  0  0  0  0
    3.9090   -5.9700   -3.5280 C   0  0  0  0  0  0  0  0  0  0  0  0
    3.1730   -6.7860   -4.4080 C   0  0  0  0  0  3  0  0  0  0  0  0
    1.8270   -8.0070   -6.4400 C   0  0  0  0  0  1  0  0  0  0  0  0
    3.2190   -8.3530   -6.2110 O   0  0  0  0  0  0  0  0  0  0  0  0
    6.0810   -5.0280   -2.6890 C   0  0  0  0  0  0  0  0  0  0  0  0
    6.6930   -5.6150   -1.7360 O   0  0  0  0  0  0  0  0  0  0  0  0
    6.3990   -3.6220   -2.9490 C   0  0  0  0  0  0  0  0  0  0  0  0
    7.2420   -2.9840   -2.0300 C   0  0  0  0  0  3  0  0  0  0  0  0
    7.5060   -1.6050   -2.1880 C   0  0  0  0  0  3  0  0  0  0  0  0
    6.8660   -0.9040   -3.1610 C   0  0  0  0  0  3  0  0  0  0  0  0
    5.9810   -1.5010   -4.0420 C   0  0  0  0  0  3  0  0  0  0  0  0
    5.7100   -2.8790   -3.9290 C   0  0  0  0  0  3  0  0  0  0  0  0
    3.2450   -5.1780   -2.5750 O   0  0  0  0  0  0  0  0  0  0  0  0
    3.6140   -5.0890   -1.6610 H   0  0  0  0  0  0  0  0  0  0  0  0
  1  6  1  0  0  0  0
  2  1  2  0  0  0  0
  2  3  1  0  0  0  0
  3  4  2  0  0  0  0
  4  5  1  0  0  0  0
  4  9  1  0  0  0  0
  5 17  1  0  0  0  0
  6  5  2  0  0  0  0
  7  8  1  0  0  0  0
  8  1  1  0  0  0  0
  9 10  2  0  0  0  0
 11  9  1  0  0  0  0
 11 12  1  0  0  0  0
 13 12  2  0  0  0  0
 14 13  1  0  0  0  0
 15 16  1  0  0  0  0
 15 14  2  0  0  0  0
 16 11  2  0  0  0  0
 17 18  1  0  0  0  0
M  END
>  <MODEL>
5

>  <REMARK>
 VINA RESULT:      -3.7      8.210     10.789
  Name = bgox31_4_ligand
  5 active torsions:
  status: ('A' for Active; 'I' for Inactive)
    1  A    between atoms: C_1  and  O_2
    2  A    between atoms: O_2  and  C_3
    3  A    between atoms: C_6  and  C_7
    4  A    between atoms: C_7  and  C_9
    5  A    between atoms: C_15  and  O_16
                            x       y       z     vdW  Elec       q    Type
                         _______ _______ _______ _____ _____    ______ ____

>  <TORSDO>
F 4

$$$$
bgox31_4_ligand
 OpenBabel10092621253D

 18 19  0  0  0  0  0  0  0  0999 V2000
   -1.7860   -9.6670    5.7720 C   0  0  0  0  0  0  0  0  0  0  0  0
   -1.9230   -8.4060    5.2610 C   0  0  0  0  0  3  0  0  0  0  0  0
   -3.1830   -7.7090    5.3330 C   0  0  0  0  0  3  0  0  0  0  0  0
   -4.2630   -8.4070    5.8920 C   0  0  0  0  0  0  0  0  0  0  0  0
   -4.0910   -9.6790    6.4210 C   0  0  0  0  0  0  0  0  0  0  0  0
   -2.8530  -10.3460    6.3650 C   0  0  0  0  0  3  0  0  0  0  0  0
    0.1160  -10.4570    6.9820 C   0  0  0  0  0  1  0  0  0  0  0  0
   -0.5570  -10.2740    5.7070 O   0  0  0  0  0  0  0  0  0  0  0  0
   -5.5540   -7.6980    5.9270 C   0  0  0  0  0  0  0  0  0  0  0  0
   -6.0720   -7.5170    7.0790 O   0  0  0  0  0  0  0  0  0  0  0  0
   -6.1450   -6.9920    4.7880 C   0  0  0  0  0  0  0  0  0  0  0  0
   -6.2190   -7.6950    3.5780 C   0  0  0  0  0  3  0  0  0  0  0  0
   -6.6980   -7.0270    2.4290 C   0  0  0  0  0  3  0  0  0  0  0  0
   -6.9830   -5.7000    2.4900 C   0  0  0  0  0  3  0  0  0  0  0  0
   -6.8580   -4.9710    3.6600 C   0  0  0  0  0  3  0  0  0  0  0  0
   -6.4050   -5.6070    4.8320 C   0  0  0  0  0  3  0  0  0  0  0  0
   -5.2110  -10.3110    6.9890 O   0  0  0  0  0  0  0  0  0  0  0  0
   -5.1720  -11.2740    7.2210 H   0  0  0  0  0  0  0  0  0  0  0  0
  1  6  1  0  0  0  0
  2  3  1  0  0  0  0
  2  1  2  0  0  0  0
  3  4  2  0  0  0  0
  4  9  1  0  0  0  0
  4  5  1  0  0  0  0
  5 17  1  0  0  0  0
  6  5  2  0  0  0  0
  8  1  1  0  0  0  0
  8  7  1  0  0  0  0
  9 10  2  0  0  0  0
 11 16  1  0  0  0  0
 11  9  1  0  0  0  0
 12 11  2  0  0  0  0
 13 14  2  0  0  0  0
 13 12  1  0  0  0  0
 14 15  1  0  0  0  0
 15 16  2  0  0  0  0
 17 18  1  0  0  0  0
M  END
>  <MODEL>
6

>  <REMARK>
 VINA RESULT:      -3.6     11.631     13.865
  Name = bgox31_4_ligand
  5 active torsions:
  status: ('A' for Active; 'I' for Inactive)
    1  A    between atoms: C_1  and  O_2
    2  A    between atoms: O_2  and  C_3
    3  A    between atoms: C_6  and  C_7
    4  A    between atoms: C_7  and  C_9
    5  A    between atoms: C_15  and  O_16
                            x       y       z     vdW  Elec       q    Type
                         _______ _______ _______ _____ _____    ______ ____

>  <TORSDO>
F 4

$$$$
bgox31_4_ligand
 OpenBabel10092621253D

 18 19  0  0  0  0  0  0  0  0999 V2000
    3.8290   -3.2790    8.0870 C   0  0  0  0  0  0  0  0  0  0  0  0
    4.7650   -3.1110    9.0710 C   0  0  0  0  0  3  0  0  0  0  0  0
    6.0630   -3.7300    8.9750 C   0  0  0  0  0  3  0  0  0  0  0  0
    6.2920   -4.5540    7.8630 C   0  0  0  0  0  0  0  0  0  0  0  0
    5.3320   -4.6910    6.8690 C   0  0  0  0  0  0  0  0  0  0  0  0
    4.0740   -4.0680    6.9600 C   0  0  0  0  0  3  0  0  0  0  0  0
    1.4900   -3.3290    7.6130 C   0  0  0  0  0  1  0  0  0  0  0  0
    2.6210   -2.6420    8.2110 O   0  0  0  0  0  0  0  0  0  0  0  0
    7.6100   -5.2100    7.7940 C   0  0  0  0  0  0  0  0  0  0  0  0
    7.6080   -6.4850    7.7540 O   0  0  0  0  0  0  0  0  0  0  0  0
    8.8700   -4.5140    7.5280 C   0  0  0  0  0  0  0  0  0  0  0  0
    9.4390   -4.6960    6.2610 C   0  0  0  0  0  3  0  0  0  0  0  0
   10.6990   -4.1180    5.9870 C   0  0  0  0  0  3  0  0  0  0  0  0
   11.3790   -3.4840    6.9780 C   0  0  0  0  0  3  0  0  0  0  0  0
   10.8640   -3.3460    8.2560 C   0  0  0  0  0  3  0  0  0  0  0  0
    9.6000   -3.8900    8.5600 C   0  0  0  0  0  3  0  0  0  0  0  0
    5.6380   -5.5130    5.7700 O   0  0  0  0  0  0  0  0  0  0  0  0
    6.5670   -5.8240    5.6260 H   0  0  0  0  0  0  0  0  0  0  0  0
  1  8  1  0  0  0  0
  1  2  1  0  0  0  0
  3  2  2  0  0  0  0
  4  3  1  0  0  0  0
  5  6  1  0  0  0  0
  5  4  2  0  0  0  0
  6  1  2  0  0  0  0
  7  8  1  0  0  0  0
  9  4  1  0  0  0  0
 10  9  2  0  0  0  0
 11  9  1  0  0  0  0
 11 16  1  0  0  0  0
 12 11  2  0  0  0  0
 13 12  1  0  0  0  0
 13 14  2  0  0  0  0
 14 15  1  0  0  0  0
 15 16  2  0  0  0  0
 17  5  1  0  0  0  0
 18 17  1  0  0  0  0
M  END
>  <MODEL>
7

>  <REMARK>
 VINA RESULT:      -3.6     17.234     18.760
  Name = bgox31_4_ligand
  5 active torsions:
  status: ('A' for Active; 'I' for Inactive)
    1  A    between atoms: C_1  and  O_2
    2  A    between atoms: O_2  and  C_3
    3  A    between atoms: C_6  and  C_7
    4  A    between atoms: C_7  and  C_9
    5  A    between atoms: C_15  and  O_16
                            x       y       z     vdW  Elec       q    Type
                         _______ _______ _______ _____ _____    ______ ____

>  <TORSDO>
F 4

$$$$
bgox31_4_ligand
 OpenBabel10092621253D

 18 19  0  0  0  0  0  0  0  0999 V2000
    5.2230   -3.7170   -5.5780 C   0  0  0  0  0  0  0  0  0  0  0  0
    6.0340   -2.6190   -5.4740 C   0  0  0  0  0  3  0  0  0  0  0  0
    6.7820   -2.3600   -4.2700 C   0  0  0  0  0  3  0  0  0  0  0  0
    6.5910   -3.2470   -3.2000 C   0  0  0  0  0  0  0  0  0  0  0  0
    5.7780   -4.3640   -3.3390 C   0  0  0  0  0  0  0  0  0  0  0  0
    5.0650   -4.6210   -4.5250 C   0  0  0  0  0  3  0  0  0  0  0  0
    3.5620   -4.9930   -6.7240 C   0  0  0  0  0  1  0  0  0  0  0  0
    4.5580   -3.9360   -6.7570 O   0  0  0  0  0  0  0  0  0  0  0  0
    7.3330   -2.9510   -1.9630 C   0  0  0  0  0  0  0  0  0  0  0  0
    6.6450   -2.8770   -0.8910 O   0  0  0  0  0  0  0  0  0  0  0  0
    8.7930   -2.9780   -1.8440 C   0  0  0  0  0  0  0  0  0  0  0  0
    9.4440   -1.7400   -1.7620 C   0  0  0  0  0  3  0  0  0  0  0  0
   10.8560   -1.7110   -1.7360 C   0  0  0  0  0  3  0  0  0  0  0  0
   11.5560   -2.8650   -1.8900 C   0  0  0  0  0  3  0  0  0  0  0  0
   10.9340   -4.0930   -2.0360 C   0  0  0  0  0  3  0  0  0  0  0  0
    9.5280   -4.1640   -2.0440 C   0  0  0  0  0  3  0  0  0  0  0  0
    5.6500   -5.2250   -2.2350 O   0  0  0  0  0  0  0  0  0  0  0  0
    5.2050   -6.1030   -2.3400 H   0  0  0  0  0  0  0  0  0  0  0  0
  1  2  2  0  0  0  0
  1  6  1  0  0  0  0
  2  3  1  0  0  0  0
  3  4  2  0  0  0  0
  4  9  1  0  0  0  0
  5  4  1  0  0  0  0
  5 17  1  0  0  0  0
  6  5  2  0  0  0  0
  8  7  1  0  0  0  0
  8  1  1  0  0  0  0
  9 11  1  0  0  0  0
  9 10  2  0  0  0  0
 11 12  1  0  0  0  0
 12 13  2  0  0  0  0
 14 13  1  0  0  0  0
 15 14  2  0  0  0  0
 16 15  1  0  0  0  0
 16 11  2  0  0  0  0
 18 17  1  0  0  0  0
M  END
>  <MODEL>
8

>  <REMARK>
 VINA RESULT:      -3.5     10.038     12.498
  Name = bgox31_4_ligand
  5 active torsions:
  status: ('A' for Active; 'I' for Inactive)
    1  A    between atoms: C_1  and  O_2
    2  A    between atoms: O_2  and  C_3
    3  A    between atoms: C_6  and  C_7
    4  A    between atoms: C_7  and  C_9
    5  A    between atoms: C_15  and  O_16
                            x       y       z     vdW  Elec       q    Type
                         _______ _______ _______ _____ _____    ______ ____

>  <TORSDO>
F 4

$$$$
bgox31_4_ligand
 OpenBabel10092621253D

 18 19  0  0  0  0  0  0  0  0999 V2000
    1.6310   -8.7590   -4.0280 C   0  0  0  0  0  0  0  0  0  0  0  0
    0.8200   -9.0120   -5.1000 C   0  0  0  0  0  3  0  0  0  0  0  0
   -0.6120   -9.0730   -4.9500 C   0  0  0  0  0  3  0  0  0  0  0  0
   -1.1210   -8.9210   -3.6520 C   0  0  0  0  0  0  0  0  0  0  0  0
   -0.2770   -8.6460   -2.5840 C   0  0  0  0  0  0  0  0  0  0  0  0
    1.1190   -8.5700   -2.7420 C   0  0  0  0  0  3  0  0  0  0  0  0
    3.4510   -7.4610   -4.8670 C   0  0  0  0  0  1  0  0  0  0  0  0
    2.9860   -8.6810   -4.2300 O   0  0  0  0  0  0  0  0  0  0  0  0
   -2.5840   -9.0210   -3.5060 C   0  0  0  0  0  0  0  0  0  0  0  0
   -3.0250  -10.0490   -2.8930 O   0  0  0  0  0  0  0  0  0  0  0  0
   -3.5220   -7.9330   -3.7900 C   0  0  0  0  0  0  0  0  0  0  0  0
   -4.4770   -7.6470   -2.8060 C   0  0  0  0  0  3  0  0  0  0  0  0
   -5.4600   -6.6680   -3.0700 C   0  0  0  0  0  3  0  0  0  0  0  0
   -5.5240   -6.0940   -4.3000 C   0  0  0  0  0  3  0  0  0  0  0  0
   -4.6300   -6.4060   -5.3090 C   0  0  0  0  0  3  0  0  0  0  0  0
   -3.6220   -7.3620   -5.0750 C   0  0  0  0  0  3  0  0  0  0  0  0
   -0.8570   -8.4810   -1.3140 O   0  0  0  0  0  0  0  0  0  0  0  0
   -1.8420   -8.4970   -1.2130 H   0  0  0  0  0  0  0  0  0  0  0  0
  1  6  1  0  0  0  0
  2  3  1  0  0  0  0
  2  1  2  0  0  0  0
  3  4  2  0  0  0  0
  4  9  1  0  0  0  0
  4  5  1  0  0  0  0
  5 17  1  0  0  0  0
  6  5  2  0  0  0  0
  7  8  1  0  0  0  0
  8  1  1  0  0  0  0
  9 10  2  0  0  0  0
 11  9  1  0  0  0  0
 11 12  1  0  0  0  0
 13 12  2  0  0  0  0
 14 13  1  0  0  0  0
 15 16  1  0  0  0  0
 15 14  2  0  0  0  0
 16 11  2  0  0  0  0
 17 18  1  0  0  0  0
M  END
>  <MODEL>
9

>  <REMARK>
 VINA RESULT:      -3.5      5.033      6.480
  Name = bgox31_4_ligand
  5 active torsions:
  status: ('A' for Active; 'I' for Inactive)
    1  A    between atoms: C_1  and  O_2
    2  A    between atoms: O_2  and  C_3
    3  A    between atoms: C_6  and  C_7
    4  A    between atoms: C_7  and  C_9
    5  A    between atoms: C_15  and  O_16
                            x       y       z     vdW  Elec       q    Type
                         _______ _______ _______ _____ _____    ______ ____

>  <TORSDO>
F 4

$$$$
