/Users/cafierom/python_mac/peptidebuilder/runs/oxybenzone/folds/dock_stage/rf3/bgox31_4_rf3cof_ligand.sdf.ligand.pdb
 OpenBabel10092620523D

 17 18  0  0  0  0  0  0  0  0999 V2000
   -2.2150   -1.9780  -12.7310 C   0  0  0  0  0  0  0  0  0  0  0  0
   -1.5100   -3.0460  -12.1580 O   0  0  0  0  0  0  0  0  0  0  0  0
   -1.5720   -3.2530  -10.8010 C   0  0  0  0  0  0  0  0  0  0  0  0
   -1.1680   -4.4890  -10.3200 C   0  0  0  0  0  0  0  0  0  0  0  0
   -1.2130   -4.7440   -8.9720 C   0  0  0  0  0  0  0  0  0  0  0  0
   -1.6610   -3.7770   -8.1090 C   0  0  0  0  0  0  0  0  0  0  0  0
   -1.7200   -4.0770   -6.6800 C   0  0  0  0  0  0  0  0  0  0  0  0
   -2.5530   -4.9160   -6.2960 O   0  0  0  0  0  0  0  0  0  0  0  0
   -0.8440   -3.4310   -5.6830 C   0  0  0  0  0  0  0  0  0  0  0  0
    0.0900   -2.4870   -6.0740 C   0  0  0  0  0  0  0  0  0  0  0  0
    0.8910   -1.8900   -5.1320 C   0  0  0  0  0  0  0  0  0  0  0  0
    0.7570   -2.2380   -3.7990 C   0  0  0  0  0  0  0  0  0  0  0  0
   -0.1770   -3.2030   -3.4180 C   0  0  0  0  0  0  0  0  0  0  0  0
   -0.9830   -3.7980   -4.3580 C   0  0  0  0  0  0  0  0  0  0  0  0
   -2.0650   -2.4980   -8.5800 C   0  0  0  0  0  0  0  0  0  0  0  0
   -2.5010   -1.6030   -7.7670 O   0  0  0  0  0  0  0  0  0  0  0  0
   -2.0210   -2.2610   -9.9460 C   0  0  0  0  0  0  0  0  0  0  0  0
  1  2  1  0  0  0  0
  2  3  1  0  0  0  0
  3  4  2  0  0  0  0
  3 17  1  0  0  0  0
  4  5  1  0  0  0  0
  5  6  2  0  0  0  0
  6  7  1  0  0  0  0
  7  8  2  0  0  0  0
  7  9  1  0  0  0  0
  9 14  1  0  0  0  0
 10  9  2  0  0  0  0
 10 11  1  0  0  0  0
 11 12  2  0  0  0  0
 12 13  1  0  0  0  0
 14 13  2  0  0  0  0
 15  6  1  0  0  0  0
 15 16  1  0  0  0  0
 17 15  2  0  0  0  0
M  END
$$$$
