/Users/cafierom/python_mac/peptidebuilder/runs/oxybenzone/folds/dock_stage/rf3/bgox31_3_rf3cof_ligand.sdf.ligand.pdb
 OpenBabel10092620513D

 17 18  0  0  0  0  0  0  0  0999 V2000
    5.8450    4.5920   -2.8800 C   0  0  0  0  0  0  0  0  0  0  0  0
    4.9820    4.2850   -1.8140 O   0  0  0  0  0  0  0  0  0  0  0  0
    5.4280    3.3890   -0.8510 C   0  0  0  0  0  0  0  0  0  0  0  0
    4.5150    2.9870    0.0950 C   0  0  0  0  0  0  0  0  0  0  0  0
    4.8940    2.1090    1.0640 C   0  0  0  0  0  0  0  0  0  0  0  0
    6.1640    1.6000    1.1250 C   0  0  0  0  0  0  0  0  0  0  0  0
    6.6150    0.6370    2.1450 C   0  0  0  0  0  0  0  0  0  0  0  0
    7.7960    0.1980    2.0790 O   0  0  0  0  0  0  0  0  0  0  0  0
    5.7690    0.1170    3.2080 C   0  0  0  0  0  0  0  0  0  0  0  0
    5.8880   -1.2210    3.5560 C   0  0  0  0  0  0  0  0  0  0  0  0
    5.1390   -1.7220    4.5680 C   0  0  0  0  0  0  0  0  0  0  0  0
    4.2300   -0.8940    5.2400 C   0  0  0  0  0  0  0  0  0  0  0  0
    4.1400    0.4330    4.9150 C   0  0  0  0  0  0  0  0  0  0  0  0
    4.8880    0.9450    3.8980 C   0  0  0  0  0  0  0  0  0  0  0  0
    7.1340    2.0150    0.1380 C   0  0  0  0  0  0  0  0  0  0  0  0
    8.3440    1.5440    0.2130 O   0  0  0  0  0  0  0  0  0  0  0  0
    6.7350    2.9080   -0.8330 C   0  0  0  0  0  0  0  0  0  0  0  0
  1  2  1  0  0  0  0
  2  3  1  0  0  0  0
  3 17  2  0  0  0  0
  3  4  1  0  0  0  0
  4  5  2  0  0  0  0
  5  6  1  0  0  0  0
  6  7  1  0  0  0  0
  7  9  1  0  0  0  0
  8  7  2  0  0  0  0
  9 10  2  0  0  0  0
  9 14  1  0  0  0  0
 10 11  1  0  0  0  0
 11 12  2  0  0  0  0
 13 12  1  0  0  0  0
 14 13  2  0  0  0  0
 15 16  1  0  0  0  0
 15  6  2  0  0  0  0
 17 15  1  0  0  0  0
M  END
$$$$
