/Users/cafierom/python_mac/peptidebuilder/runs/oxybenzone/folds/dock_stage/rf3/bgox31_5_rf3cof_ligand.sdf.ligand.pdb
 OpenBabel10092620523D

 17 18  0  0  0  0  0  0  0  0999 V2000
    9.8680    4.7270    0.6420 C   0  0  0  0  0  0  0  0  0  0  0  0
    9.5000    3.4120    1.0350 O   0  0  0  0  0  0  0  0  0  0  0  0
    9.1030    2.5380    0.0680 C   0  0  0  0  0  0  0  0  0  0  0  0
    9.0290    1.1960    0.4160 C   0  0  0  0  0  0  0  0  0  0  0  0
    8.6370    0.2610   -0.4850 C   0  0  0  0  0  0  0  0  0  0  0  0
    8.2400    0.6470   -1.7530 C   0  0  0  0  0  0  0  0  0  0  0  0
    7.8220   -0.3370   -2.7410 C   0  0  0  0  0  0  0  0  0  0  0  0
    8.4250   -0.4140   -3.8480 O   0  0  0  0  0  0  0  0  0  0  0  0
    6.6680   -1.2240   -2.5080 C   0  0  0  0  0  0  0  0  0  0  0  0
    6.5540   -2.3950   -3.2350 C   0  0  0  0  0  0  0  0  0  0  0  0
    5.4930   -3.2240   -3.0280 C   0  0  0  0  0  0  0  0  0  0  0  0
    4.5070   -2.8780   -2.0910 C   0  0  0  0  0  0  0  0  0  0  0  0
    4.6320   -1.7070   -1.3820 C   0  0  0  0  0  0  0  0  0  0  0  0
    5.6890   -0.8740   -1.5880 C   0  0  0  0  0  0  0  0  0  0  0  0
    8.2800    2.0270   -2.1240 C   0  0  0  0  0  0  0  0  0  0  0  0
    7.9480    2.3690   -3.3450 O   0  0  0  0  0  0  0  0  0  0  0  0
    8.7110    2.9570   -1.1910 C   0  0  0  0  0  0  0  0  0  0  0  0
  1  2  1  0  0  0  0
  3  4  1  0  0  0  0
  3  2  1  0  0  0  0
  5  4  2  0  0  0  0
  6  5  1  0  0  0  0
  7  9  1  0  0  0  0
  7  6  1  0  0  0  0
  8  7  2  0  0  0  0
  9 14  1  0  0  0  0
 10 11  1  0  0  0  0
 10  9  2  0  0  0  0
 11 12  2  0  0  0  0
 12 13  1  0  0  0  0
 14 13  2  0  0  0  0
 15  6  2  0  0  0  0
 15 17  1  0  0  0  0
 16 15  1  0  0  0  0
 17  3  2  0  0  0  0
M  END
$$$$
