bgox31_5_ligand
     RDKit          3D

 29 30  0  0  0  0  0  0  0  0999 V2000
   10.5547    4.2845    1.0496 C   0  0  0  0  0  0  0  0  0  0  0  0
    9.8238    3.0334    1.1926 O   0  0  0  0  0  0  0  0  0  0  0  0
    9.2190    2.4012    0.0488 C   0  0  0  0  0  0  0  0  0  0  0  0
    8.3191    1.4436    0.3968 C   0  0  0  0  0  0  0  0  0  0  0  0
    7.6343    0.7383   -0.6157 C   0  0  0  0  0  0  0  0  0  0  0  0
    7.8260    0.9865   -1.9594 C   0  0  0  0  0  0  0  0  0  0  0  0
    7.0750    0.2407   -2.9404 C   0  0  0  0  0  0  0  0  0  0  0  0
    6.9445    0.7165   -4.0754 O   0  0  0  0  0  0  0  0  0  0  0  0
    6.3780   -1.0273   -2.5559 C   0  0  0  0  0  0  0  0  0  0  0  0
    5.0232   -1.2562   -2.7216 C   0  0  0  0  0  0  0  0  0  0  0  0
    4.4250   -2.4854   -2.3297 C   0  0  0  0  0  0  0  0  0  0  0  0
    5.1530   -3.5011   -1.7867 C   0  0  0  0  0  0  0  0  0  0  0  0
    6.5065   -3.3227   -1.6282 C   0  0  0  0  0  0  0  0  0  0  0  0
    7.0868   -2.0835   -1.9879 C   0  0  0  0  0  0  0  0  0  0  0  0
    8.7387    1.9767   -2.3144 C   0  0  0  0  0  0  0  0  0  0  0  0
    8.9620    2.2401   -3.6251 O   0  0  0  0  0  0  0  0  0  0  0  0
    9.4364    2.6958   -1.3055 C   0  0  0  0  0  0  0  0  0  0  0  0
   10.4299    4.6670    0.0259 H   0  0  0  0  0  0  0  0  0  0  0  0
   10.1639    5.0215    1.7667 H   0  0  0  0  0  0  0  0  0  0  0  0
   11.6225    4.1101    1.2483 H   0  0  0  0  0  0  0  0  0  0  0  0
    8.1267    1.2209    1.4567 H   0  0  0  0  0  0  0  0  0  0  0  0
    6.9175   -0.0424   -0.3212 H   0  0  0  0  0  0  0  0  0  0  0  0
    4.3952   -0.4700   -3.1663 H   0  0  0  0  0  0  0  0  0  0  0  0
    3.3422   -2.6203   -2.4690 H   0  0  0  0  0  0  0  0  0  0  0  0
    4.6692   -4.4411   -1.4825 H   0  0  0  0  0  0  0  0  0  0  0  0
    7.1314   -4.1339   -1.2264 H   0  0  0  0  0  0  0  0  0  0  0  0
    8.1632   -1.9458   -1.8081 H   0  0  0  0  0  0  0  0  0  0  0  0
    9.6092    2.9425   -3.8855 H   0  0  0  0  0  0  0  0  0  0  0  0
   10.1485    3.4853   -1.5877 H   0  0  0  0  0  0  0  0  0  0  0  0
  2  1  1  0
  3  2  1  0
  4  3  1  0
  5  4  2  0
  6  5  1  0
  7  6  1  0
  8  7  2  0
  9  7  1  0
 10  9  2  0
 11 10  1  0
 12 11  2  0
 13 12  1  0
 14 13  2  0
 14  9  1  0
 15  6  2  0
 16 15  1  0
 17 15  1  0
 17  3  2  0
  1 18  1  0
  1 19  1  0
  1 20  1  0
  4 21  1  0
  5 22  1  0
 10 23  1  0
 11 24  1  0
 12 25  1  0
 13 26  1  0
 14 27  1  0
 16 28  1  0
 17 29  1  0
M  END
$$$$
