bgox31_2_ligand
     RDKit          3D

 29 30  0  0  0  0  0  0  0  0999 V2000
    1.6259    1.3338   -6.6691 C   0  0  0  0  0  0  0  0  0  0  0  0
    1.7625    0.1465   -7.4096 O   0  0  0  0  0  0  0  0  0  0  0  0
    0.7247   -0.2114   -8.1763 C   0  0  0  0  0  0  0  0  0  0  0  0
    0.6074   -1.5490   -8.5652 C   0  0  0  0  0  0  0  0  0  0  0  0
   -0.4677   -1.9581   -9.3130 C   0  0  0  0  0  0  0  0  0  0  0  0
   -1.4054   -1.0282   -9.6692 C   0  0  0  0  0  0  0  0  0  0  0  0
   -2.5906   -1.5032  -10.4596 C   0  0  0  0  0  0  0  0  0  0  0  0
   -3.0501   -0.7612  -11.2828 O   0  0  0  0  0  0  0  0  0  0  0  0
   -3.1009   -2.8379  -10.3427 C   0  0  0  0  0  0  0  0  0  0  0  0
   -3.7869   -3.3390  -11.4246 C   0  0  0  0  0  0  0  0  0  0  0  0
   -4.3463   -4.5931  -11.3242 C   0  0  0  0  0  0  0  0  0  0  0  0
   -4.1879   -5.3049  -10.1595 C   0  0  0  0  0  0  0  0  0  0  0  0
   -3.5479   -4.8150   -9.1253 C   0  0  0  0  0  0  0  0  0  0  0  0
   -2.9781   -3.5633   -9.2250 C   0  0  0  0  0  0  0  0  0  0  0  0
   -1.2737    0.3077   -9.3287 C   0  0  0  0  0  0  0  0  0  0  0  0
   -2.1983    1.1743   -9.7698 O   0  0  0  0  0  0  0  0  0  0  0  0
   -0.1997    0.7020   -8.5904 C   0  0  0  0  0  0  0  0  0  0  0  0
    0.5637    1.5009   -6.4368 H   0  0  0  0  0  0  0  0  0  0  0  0
    2.1971    1.2498   -5.7329 H   0  0  0  0  0  0  0  0  0  0  0  0
    2.0098    2.1796   -7.2584 H   0  0  0  0  0  0  0  0  0  0  0  0
    1.3792   -2.2755   -8.2709 H   0  0  0  0  0  0  0  0  0  0  0  0
   -0.5731   -3.0094   -9.6190 H   0  0  0  0  0  0  0  0  0  0  0  0
   -3.8863   -2.7511  -12.3490 H   0  0  0  0  0  0  0  0  0  0  0  0
   -4.9126   -5.0196  -12.1652 H   0  0  0  0  0  0  0  0  0  0  0  0
   -4.6116   -6.3179  -10.0928 H   0  0  0  0  0  0  0  0  0  0  0  0
   -3.4667   -5.3933   -8.1931 H   0  0  0  0  0  0  0  0  0  0  0  0
   -2.4143   -3.1551   -8.3733 H   0  0  0  0  0  0  0  0  0  0  0  0
   -2.1264    2.1345   -9.5400 H   0  0  0  0  0  0  0  0  0  0  0  0
   -0.0769    1.7629   -8.3265 H   0  0  0  0  0  0  0  0  0  0  0  0
  2  1  1  0
  3  2  1  0
  4  3  1  0
  5  4  2  0
  6  5  1  0
  7  6  1  0
  8  7  2  0
  9  7  1  0
 10  9  2  0
 11 10  1  0
 12 11  2  0
 13 12  1  0
 14 13  2  0
 14  9  1  0
 15  6  2  0
 16 15  1  0
 17 15  1  0
 17  3  2  0
  1 18  1  0
  1 19  1  0
  1 20  1  0
  4 21  1  0
  5 22  1  0
 10 23  1  0
 11 24  1  0
 12 25  1  0
 13 26  1  0
 14 27  1  0
 16 28  1  0
 17 29  1  0
M  END
$$$$
