bgox31_4_ligand
     RDKit          3D

 29 30  0  0  0  0  0  0  0  0999 V2000
   -1.8774   -1.8513  -12.7031 C   0  0  0  0  0  0  0  0  0  0  0  0
   -1.5694   -3.1872  -12.2229 O   0  0  0  0  0  0  0  0  0  0  0  0
   -1.6245   -3.3502  -10.8614 C   0  0  0  0  0  0  0  0  0  0  0  0
   -1.1987   -4.5342  -10.3236 C   0  0  0  0  0  0  0  0  0  0  0  0
   -1.2657   -4.7714   -8.9034 C   0  0  0  0  0  0  0  0  0  0  0  0
   -1.7281   -3.7154   -8.1051 C   0  0  0  0  0  0  0  0  0  0  0  0
   -1.7589   -3.9569   -6.6522 C   0  0  0  0  0  0  0  0  0  0  0  0
   -2.5617   -4.8598   -6.2434 O   0  0  0  0  0  0  0  0  0  0  0  0
   -0.7825   -3.4203   -5.7010 C   0  0  0  0  0  0  0  0  0  0  0  0
   -0.8094   -3.9466   -4.4026 C   0  0  0  0  0  0  0  0  0  0  0  0
    0.0508   -3.3992   -3.4252 C   0  0  0  0  0  0  0  0  0  0  0  0
    0.8133   -2.3162   -3.7292 C   0  0  0  0  0  0  0  0  0  0  0  0
    0.8095   -1.7397   -4.9880 C   0  0  0  0  0  0  0  0  0  0  0  0
   -0.0196   -2.2722   -5.9957 C   0  0  0  0  0  0  0  0  0  0  0  0
   -2.1732   -2.5310   -8.6783 C   0  0  0  0  0  0  0  0  0  0  0  0
   -2.6473   -1.5232   -7.8209 O   0  0  0  0  0  0  0  0  0  0  0  0
   -2.1223   -2.3142  -10.0682 C   0  0  0  0  0  0  0  0  0  0  0  0
   -1.5289   -1.7454  -13.7411 H   0  0  0  0  0  0  0  0  0  0  0  0
   -2.9645   -1.6889  -12.6629 H   0  0  0  0  0  0  0  0  0  0  0  0
   -1.3718   -1.1082  -12.0690 H   0  0  0  0  0  0  0  0  0  0  0  0
   -0.7992   -5.3170  -10.9852 H   0  0  0  0  0  0  0  0  0  0  0  0
   -0.9680   -5.7359   -8.4661 H   0  0  0  0  0  0  0  0  0  0  0  0
   -1.4897   -4.7728   -4.1485 H   0  0  0  0  0  0  0  0  0  0  0  0
    0.1033   -3.8476   -2.4222 H   0  0  0  0  0  0  0  0  0  0  0  0
    1.4555   -1.8827   -2.9484 H   0  0  0  0  0  0  0  0  0  0  0  0
    1.4500   -0.8711   -5.2004 H   0  0  0  0  0  0  0  0  0  0  0  0
   -0.0703   -1.8027   -6.9892 H   0  0  0  0  0  0  0  0  0  0  0  0
   -2.9720   -0.6665   -8.1960 H   0  0  0  0  0  0  0  0  0  0  0  0
   -2.4610   -1.3664  -10.5119 H   0  0  0  0  0  0  0  0  0  0  0  0
  2  1  1  0
  3  2  1  0
  4  3  1  0
  5  4  2  0
  6  5  1  0
  7  6  1  0
  8  7  2  0
  9  7  1  0
 10  9  2  0
 11 10  1  0
 12 11  2  0
 13 12  1  0
 14 13  2  0
 14  9  1  0
 15  6  2  0
 16 15  1  0
 17 15  1  0
 17  3  2  0
  1 18  1  0
  1 19  1  0
  1 20  1  0
  4 21  1  0
  5 22  1  0
 10 23  1  0
 11 24  1  0
 12 25  1  0
 13 26  1  0
 14 27  1  0
 16 28  1  0
 17 29  1  0
M  END
$$$$
