/Users/cafierom/python_mac/peptidebuilder/runs/oxybenzone/folds/dock_stage/rf3/bgox31_2_rf3cof_ligand.sdf.ligand.pdb
 OpenBabel10092620503D

 17 18  0  0  0  0  0  0  0  0999 V2000
    2.0770    1.4340   -7.2310 C   0  0  0  0  0  0  0  0  0  0  0  0
    1.8110    0.0750   -7.4300 O   0  0  0  0  0  0  0  0  0  0  0  0
    0.6970   -0.2650   -8.1490 C   0  0  0  0  0  0  0  0  0  0  0  0
    0.5730   -1.5800   -8.5600 C   0  0  0  0  0  0  0  0  0  0  0  0
   -0.4990   -1.9610   -9.2460 C   0  0  0  0  0  0  0  0  0  0  0  0
   -1.4830   -1.0560   -9.6210 C   0  0  0  0  0  0  0  0  0  0  0  0
   -2.6480   -1.4480  -10.3840 C   0  0  0  0  0  0  0  0  0  0  0  0
   -3.2740   -0.5770  -11.0540 O   0  0  0  0  0  0  0  0  0  0  0  0
   -3.1460   -2.8220  -10.3410 C   0  0  0  0  0  0  0  0  0  0  0  0
   -3.1600   -3.5550  -11.5240 C   0  0  0  0  0  0  0  0  0  0  0  0
   -3.6350   -4.8380  -11.4760 C   0  0  0  0  0  0  0  0  0  0  0  0
   -4.0990   -5.3640  -10.2870 C   0  0  0  0  0  0  0  0  0  0  0  0
   -4.0930   -4.6160   -9.1420 C   0  0  0  0  0  0  0  0  0  0  0  0
   -3.6200   -3.3370   -9.1520 C   0  0  0  0  0  0  0  0  0  0  0  0
   -1.3680    0.2910   -9.2020 C   0  0  0  0  0  0  0  0  0  0  0  0
   -2.2960    1.1510   -9.5540 O   0  0  0  0  0  0  0  0  0  0  0  0
   -0.2500    0.6680   -8.4820 C   0  0  0  0  0  0  0  0  0  0  0  0
  2  1  1  0  0  0  0
  3  2  1  0  0  0  0
  4  3  2  0  0  0  0
  5  4  1  0  0  0  0
  6  5  2  0  0  0  0
  6 15  1  0  0  0  0
  7  9  1  0  0  0  0
  7  6  1  0  0  0  0
  8  7  2  0  0  0  0
  9 14  1  0  0  0  0
 10 11  1  0  0  0  0
 10  9  2  0  0  0  0
 11 12  2  0  0  0  0
 12 13  1  0  0  0  0
 14 13  2  0  0  0  0
 15 17  2  0  0  0  0
 16 15  1  0  0  0  0
 17  3  1  0  0  0  0
M  END
$$$$
