bgox31_3_ligand
     RDKit          3D

 29 30  0  0  0  0  0  0  0  0999 V2000
    5.9057    4.9510   -2.6460 C   0  0  0  0  0  0  0  0  0  0  0  0
    4.9552    4.2884   -1.8612 O   0  0  0  0  0  0  0  0  0  0  0  0
    5.3732    3.3209   -0.9294 C   0  0  0  0  0  0  0  0  0  0  0  0
    4.4407    2.5052   -0.3447 C   0  0  0  0  0  0  0  0  0  0  0  0
    4.8318    1.5440    0.5805 C   0  0  0  0  0  0  0  0  0  0  0  0
    6.1351    1.4116    0.9750 C   0  0  0  0  0  0  0  0  0  0  0  0
    6.5712    0.3606    1.9532 C   0  0  0  0  0  0  0  0  0  0  0  0
    7.6112   -0.2512    1.7543 O   0  0  0  0  0  0  0  0  0  0  0  0
    5.7651    0.0104    3.1755 C   0  0  0  0  0  0  0  0  0  0  0  0
    5.6204   -1.3053    3.5303 C   0  0  0  0  0  0  0  0  0  0  0  0
    4.8577   -1.6050    4.6308 C   0  0  0  0  0  0  0  0  0  0  0  0
    4.3770   -0.6044    5.4110 C   0  0  0  0  0  0  0  0  0  0  0  0
    4.5822    0.7610    5.1083 C   0  0  0  0  0  0  0  0  0  0  0  0
    5.2691    1.0300    3.9372 C   0  0  0  0  0  0  0  0  0  0  0  0
    7.0797    2.2703    0.3828 C   0  0  0  0  0  0  0  0  0  0  0  0
    8.4030    2.0490    0.7550 O   0  0  0  0  0  0  0  0  0  0  0  0
    6.7277    3.1854   -0.5467 C   0  0  0  0  0  0  0  0  0  0  0  0
    6.9010    4.5229   -2.4558 H   0  0  0  0  0  0  0  0  0  0  0  0
    5.6518    4.8302   -3.7094 H   0  0  0  0  0  0  0  0  0  0  0  0
    5.9116    6.0206   -2.3895 H   0  0  0  0  0  0  0  0  0  0  0  0
    3.3780    2.6112   -0.6084 H   0  0  0  0  0  0  0  0  0  0  0  0
    4.0727    0.8717    1.0069 H   0  0  0  0  0  0  0  0  0  0  0  0
    6.1043   -2.1024    2.9467 H   0  0  0  0  0  0  0  0  0  0  0  0
    4.6366   -2.6534    4.8798 H   0  0  0  0  0  0  0  0  0  0  0  0
    3.8056   -0.8658    6.3139 H   0  0  0  0  0  0  0  0  0  0  0  0
    4.2169    1.5638    5.7657 H   0  0  0  0  0  0  0  0  0  0  0  0
    5.4167    2.0722    3.6175 H   0  0  0  0  0  0  0  0  0  0  0  0
    9.1240    2.6139    0.3793 H   0  0  0  0  0  0  0  0  0  0  0  0
    7.4953    3.8255   -1.0060 H   0  0  0  0  0  0  0  0  0  0  0  0
  2  1  1  0
  3  2  1  0
  4  3  1  0
  5  4  2  0
  6  5  1  0
  7  6  1  0
  8  7  2  0
  9  7  1  0
 10  9  2  0
 11 10  1  0
 12 11  2  0
 13 12  1  0
 14 13  2  0
 14  9  1  0
 15  6  2  0
 16 15  1  0
 17 15  1  0
 17  3  2  0
  1 18  1  0
  1 19  1  0
  1 20  1  0
  4 21  1  0
  5 22  1  0
 10 23  1  0
 11 24  1  0
 12 25  1  0
 13 26  1  0
 14 27  1  0
 16 28  1  0
 17 29  1  0
M  END
$$$$
