/Users/cafierom/python_mac/peptidebuilder/runs/oxybenzone/folds/dock_stage/rf3/ox1_esm1_f8_rf3cof_ligand.sdf.ligand.pdb
 OpenBabel10092620463D

 17 18  0  0  0  0  0  0  0  0999 V2000
   -5.0670   -1.3820    8.2140 C   0  0  0  0  0  0  0  0  0  0  0  0
   -4.5840   -0.7360    7.0660 O   0  0  0  0  0  0  0  0  0  0  0  0
   -4.1760   -1.4740    5.9940 C   0  0  0  0  0  0  0  0  0  0  0  0
   -3.5970   -0.7880    4.9470 C   0  0  0  0  0  0  0  0  0  0  0  0
   -3.1820   -1.4720    3.8520 C   0  0  0  0  0  0  0  0  0  0  0  0
   -3.3060   -2.8250    3.7450 C   0  0  0  0  0  0  0  0  0  0  0  0
   -2.8470   -3.5850    2.5740 C   0  0  0  0  0  0  0  0  0  0  0  0
   -3.4010   -4.6940    2.3450 O   0  0  0  0  0  0  0  0  0  0  0  0
   -1.7510   -3.2110    1.6720 C   0  0  0  0  0  0  0  0  0  0  0  0
   -1.1360   -1.9890    1.7440 C   0  0  0  0  0  0  0  0  0  0  0  0
   -0.0950   -1.6770    0.9130 C   0  0  0  0  0  0  0  0  0  0  0  0
    0.3420   -2.5870    0.0210 C   0  0  0  0  0  0  0  0  0  0  0  0
   -0.2620   -3.8320   -0.0590 C   0  0  0  0  0  0  0  0  0  0  0  0
   -1.2970   -4.1360    0.7680 C   0  0  0  0  0  0  0  0  0  0  0  0
   -3.9060   -3.5480    4.8200 C   0  0  0  0  0  0  0  0  0  0  0  0
   -4.0380   -4.8450    4.7160 O   0  0  0  0  0  0  0  0  0  0  0  0
   -4.3280   -2.8440    5.9430 C   0  0  0  0  0  0  0  0  0  0  0  0
  2  1  1  0  0  0  0
  3  2  1  0  0  0  0
  4  3  2  0  0  0  0
  5  4  1  0  0  0  0
  6  5  2  0  0  0  0
  6 15  1  0  0  0  0
  7  6  1  0  0  0  0
  8  7  2  0  0  0  0
  9 10  1  0  0  0  0
  9  7  1  0  0  0  0
 11 10  2  0  0  0  0
 12 11  1  0  0  0  0
 13 12  2  0  0  0  0
 13 14  1  0  0  0  0
 14  9  2  0  0  0  0
 15 17  2  0  0  0  0
 16 15  1  0  0  0  0
 17  3  1  0  0  0  0
M  END
$$$$
