ox1_esm1_f8_ligand
     RDKit          3D

 29 30  0  0  0  0  0  0  0  0999 V2000
   -5.3598   -1.1421    8.0428 C   0  0  0  0  0  0  0  0  0  0  0  0
   -4.2824   -0.7665    7.1795 O   0  0  0  0  0  0  0  0  0  0  0  0
   -3.9418   -1.5341    6.1045 C   0  0  0  0  0  0  0  0  0  0  0  0
   -2.8738   -1.1145    5.3112 C   0  0  0  0  0  0  0  0  0  0  0  0
   -2.4950   -1.8564    4.2013 C   0  0  0  0  0  0  0  0  0  0  0  0
   -3.1728   -3.0126    3.8553 C   0  0  0  0  0  0  0  0  0  0  0  0
   -2.7663   -3.7988    2.6459 C   0  0  0  0  0  0  0  0  0  0  0  0
   -3.2649   -4.9043    2.4511 O   0  0  0  0  0  0  0  0  0  0  0  0
   -1.7479   -3.2666    1.6924 C   0  0  0  0  0  0  0  0  0  0  0  0
   -0.6206   -3.9549    1.4257 C   0  0  0  0  0  0  0  0  0  0  0  0
    0.3478   -3.5422    0.5285 C   0  0  0  0  0  0  0  0  0  0  0  0
    0.1842   -2.3375   -0.1115 C   0  0  0  0  0  0  0  0  0  0  0  0
   -0.9562   -1.5897    0.1458 C   0  0  0  0  0  0  0  0  0  0  0  0
   -1.9095   -2.0601    1.0489 C   0  0  0  0  0  0  0  0  0  0  0  0
   -4.2490   -3.4486    4.6556 C   0  0  0  0  0  0  0  0  0  0  0  0
   -4.9068   -4.5981    4.3268 O   0  0  0  0  0  0  0  0  0  0  0  0
   -4.6162   -2.6979    5.7712 C   0  0  0  0  0  0  0  0  0  0  0  0
   -6.1981   -1.5207    7.4396 H   0  0  0  0  0  0  0  0  0  0  0  0
   -5.0199   -1.9287    8.7326 H   0  0  0  0  0  0  0  0  0  0  0  0
   -5.6898   -0.2657    8.6200 H   0  0  0  0  0  0  0  0  0  0  0  0
   -2.3303   -0.1928    5.5661 H   0  0  0  0  0  0  0  0  0  0  0  0
   -1.6452   -1.5213    3.5885 H   0  0  0  0  0  0  0  0  0  0  0  0
   -0.4603   -4.9057    1.9552 H   0  0  0  0  0  0  0  0  0  0  0  0
    1.2318   -4.1664    0.3311 H   0  0  0  0  0  0  0  0  0  0  0  0
    0.9450   -1.9714   -0.8165 H   0  0  0  0  0  0  0  0  0  0  0  0
   -1.1083   -0.6261   -0.3624 H   0  0  0  0  0  0  0  0  0  0  0  0
   -2.8066   -1.4562    1.2507 H   0  0  0  0  0  0  0  0  0  0  0  0
   -5.6634   -4.9118    4.8829 H   0  0  0  0  0  0  0  0  0  0  0  0
   -5.4554   -3.0349    6.3975 H   0  0  0  0  0  0  0  0  0  0  0  0
  2  1  1  0
  3  2  1  0
  4  3  1  0
  5  4  2  0
  6  5  1  0
  7  6  1  0
  8  7  2  0
  9  7  1  0
 10  9  2  0
 11 10  1  0
 12 11  2  0
 13 12  1  0
 14 13  2  0
 14  9  1  0
 15  6  2  0
 16 15  1  0
 17 15  1  0
 17  3  2  0
  1 18  1  0
  1 19  1  0
  1 20  1  0
  4 21  1  0
  5 22  1  0
 10 23  1  0
 11 24  1  0
 12 25  1  0
 13 26  1  0
 14 27  1  0
 16 28  1  0
 17 29  1  0
M  END
$$$$
