/Users/cafierom/python_mac/peptidebuilder/runs/oxybenzone/folds/dock_stage/rf3/ox1_orig_f12_rf3cof_ligand.sdf.ligand.pdb
 OpenBabel10092620473D

 17 18  0  0  0  0  0  0  0  0999 V2000
   -3.8840   -5.4960    3.6440 C   0  0  0  0  0  0  0  0  0  0  0  0
   -2.8200   -4.5870    3.4240 O   0  0  0  0  0  0  0  0  0  0  0  0
   -3.0090   -3.5480    2.5610 C   0  0  0  0  0  0  0  0  0  0  0  0
   -4.1150   -3.4370    1.7310 C   0  0  0  0  0  0  0  0  0  0  0  0
   -4.2040   -2.3870    0.8630 C   0  0  0  0  0  0  0  0  0  0  0  0
   -3.2150   -1.3980    0.8150 C   0  0  0  0  0  0  0  0  0  0  0  0
   -3.2690   -0.2680   -0.1020 C   0  0  0  0  0  0  0  0  0  0  0  0
   -2.1700    0.1680   -0.5740 O   0  0  0  0  0  0  0  0  0  0  0  0
   -4.4810    0.4690   -0.4510 C   0  0  0  0  0  0  0  0  0  0  0  0
   -5.5420    0.5170    0.4170 C   0  0  0  0  0  0  0  0  0  0  0  0
   -6.6690    1.2290    0.0610 C   0  0  0  0  0  0  0  0  0  0  0  0
   -6.6980    1.8840   -1.1190 C   0  0  0  0  0  0  0  0  0  0  0  0
   -5.6240    1.8640   -1.9770 C   0  0  0  0  0  0  0  0  0  0  0  0
   -4.4940    1.1630   -1.6330 C   0  0  0  0  0  0  0  0  0  0  0  0
   -2.1030   -1.5140    1.6620 C   0  0  0  0  0  0  0  0  0  0  0  0
   -1.1760   -0.5850    1.5970 O   0  0  0  0  0  0  0  0  0  0  0  0
   -2.0060   -2.6060    2.5240 C   0  0  0  0  0  0  0  0  0  0  0  0
  2  1  1  0  0  0  0
  3  2  1  0  0  0  0
  4  3  2  0  0  0  0
  5  4  1  0  0  0  0
  6  5  2  0  0  0  0
  6 15  1  0  0  0  0
  7  6  1  0  0  0  0
  8  7  2  0  0  0  0
  9  7  1  0  0  0  0
  9 10  1  0  0  0  0
 11 10  2  0  0  0  0
 12 11  1  0  0  0  0
 13 14  1  0  0  0  0
 13 12  2  0  0  0  0
 14  9  2  0  0  0  0
 15 17  2  0  0  0  0
 16 15  1  0  0  0  0
 17  3  1  0  0  0  0
M  END
$$$$
