ox2_esm1_f8_ligand
     RDKit          3D

 29 30  0  0  0  0  0  0  0  0999 V2000
   -0.0650   -7.6408    2.2650 C   0  0  0  0  0  0  0  0  0  0  0  0
   -1.2962   -6.8875    2.3486 O   0  0  0  0  0  0  0  0  0  0  0  0
   -1.5443   -5.9075    1.4326 C   0  0  0  0  0  0  0  0  0  0  0  0
   -0.6484   -5.5903    0.4145 C   0  0  0  0  0  0  0  0  0  0  0  0
   -0.9440   -4.5811   -0.4844 C   0  0  0  0  0  0  0  0  0  0  0  0
   -2.1382   -3.8891   -0.3888 C   0  0  0  0  0  0  0  0  0  0  0  0
   -2.4766   -2.8029   -1.3594 C   0  0  0  0  0  0  0  0  0  0  0  0
   -3.3857   -2.0395   -1.1119 O   0  0  0  0  0  0  0  0  0  0  0  0
   -1.7149   -2.6307   -2.6140 C   0  0  0  0  0  0  0  0  0  0  0  0
   -1.1963   -1.3817   -2.9410 C   0  0  0  0  0  0  0  0  0  0  0  0
   -0.4715   -1.2241   -4.1189 C   0  0  0  0  0  0  0  0  0  0  0  0
   -0.2874   -2.2871   -4.9923 C   0  0  0  0  0  0  0  0  0  0  0  0
   -0.8431   -3.5180   -4.6793 C   0  0  0  0  0  0  0  0  0  0  0  0
   -1.5530   -3.6922   -3.4908 C   0  0  0  0  0  0  0  0  0  0  0  0
   -3.0442   -4.2007    0.6349 C   0  0  0  0  0  0  0  0  0  0  0  0
   -4.2179   -3.5039    0.7261 O   0  0  0  0  0  0  0  0  0  0  0  0
   -2.7293   -5.2129    1.5409 C   0  0  0  0  0  0  0  0  0  0  0  0
    0.7270   -7.1111    2.8147 H   0  0  0  0  0  0  0  0  0  0  0  0
   -0.2142   -8.6373    2.7064 H   0  0  0  0  0  0  0  0  0  0  0  0
    0.2288   -7.7473    1.2104 H   0  0  0  0  0  0  0  0  0  0  0  0
    0.2977   -6.1443    0.3248 H   0  0  0  0  0  0  0  0  0  0  0  0
   -0.2264   -4.3278   -1.2786 H   0  0  0  0  0  0  0  0  0  0  0  0
   -1.3582   -0.5234   -2.2723 H   0  0  0  0  0  0  0  0  0  0  0  0
   -0.0381   -0.2425   -4.3612 H   0  0  0  0  0  0  0  0  0  0  0  0
    0.2906   -2.1549   -5.9188 H   0  0  0  0  0  0  0  0  0  0  0  0
   -0.7234   -4.3634   -5.3728 H   0  0  0  0  0  0  0  0  0  0  0  0
   -1.9853   -4.6744   -3.2490 H   0  0  0  0  0  0  0  0  0  0  0  0
   -4.8647   -3.7158    1.4451 H   0  0  0  0  0  0  0  0  0  0  0  0
   -3.4335   -5.4592    2.3495 H   0  0  0  0  0  0  0  0  0  0  0  0
  2  1  1  0
  3  2  1  0
  4  3  1  0
  5  4  2  0
  6  5  1  0
  7  6  1  0
  8  7  2  0
  9  7  1  0
 10  9  2  0
 11 10  1  0
 12 11  2  0
 13 12  1  0
 14 13  2  0
 14  9  1  0
 15  6  2  0
 16 15  1  0
 17 15  1  0
 17  3  2  0
  1 18  1  0
  1 19  1  0
  1 20  1  0
  4 21  1  0
  5 22  1  0
 10 23  1  0
 11 24  1  0
 12 25  1  0
 13 26  1  0
 14 27  1  0
 16 28  1  0
 17 29  1  0
M  END
$$$$
