/Users/cafierom/python_mac/peptidebuilder/runs/oxybenzone/folds/dock_stage/rf3/ox2_orig_f8_rf3cof_ligand.sdf.ligand.pdb
 OpenBabel10092620483D

 17 18  0  0  0  0  0  0  0  0999 V2000
    3.4720    7.4800   -1.8930 C   0  0  0  0  0  0  0  0  0  0  0  0
    2.2530    6.9110   -2.3410 O   0  0  0  0  0  0  0  0  0  0  0  0
    1.1210    7.0820   -1.5670 C   0  0  0  0  0  0  0  0  0  0  0  0
    1.0540    8.0540   -0.5960 C   0  0  0  0  0  0  0  0  0  0  0  0
   -0.0980    8.1660    0.1100 C   0  0  0  0  0  0  0  0  0  0  0  0
   -1.2010    7.3650   -0.1310 C   0  0  0  0  0  0  0  0  0  0  0  0
   -2.4480    7.4780    0.6000 C   0  0  0  0  0  0  0  0  0  0  0  0
   -3.3050    6.5390    0.4730 O   0  0  0  0  0  0  0  0  0  0  0  0
   -2.8290    8.6290    1.3800 C   0  0  0  0  0  0  0  0  0  0  0  0
   -3.9690    9.3000    1.0400 C   0  0  0  0  0  0  0  0  0  0  0  0
   -4.3510   10.3810    1.7610 C   0  0  0  0  0  0  0  0  0  0  0  0
   -3.5700   10.8240    2.8010 C   0  0  0  0  0  0  0  0  0  0  0  0
   -2.4400   10.1500    3.1550 C   0  0  0  0  0  0  0  0  0  0  0  0
   -2.0590    9.0600    2.4390 C   0  0  0  0  0  0  0  0  0  0  0  0
   -1.1150    6.3890   -1.1210 C   0  0  0  0  0  0  0  0  0  0  0  0
   -2.1530    5.6280   -1.3420 O   0  0  0  0  0  0  0  0  0  0  0  0
    0.0520    6.2760   -1.8380 C   0  0  0  0  0  0  0  0  0  0  0  0
  2  1  1  0  0  0  0
  2  3  1  0  0  0  0
  3  4  1  0  0  0  0
  4  5  2  0  0  0  0
  6  5  1  0  0  0  0
  6  7  1  0  0  0  0
  7  9  1  0  0  0  0
  8  7  2  0  0  0  0
  9 14  1  0  0  0  0
 10  9  2  0  0  0  0
 10 11  1  0  0  0  0
 11 12  2  0  0  0  0
 12 13  1  0  0  0  0
 14 13  2  0  0  0  0
 15  6  2  0  0  0  0
 16 15  1  0  0  0  0
 17  3  2  0  0  0  0
 17 15  1  0  0  0  0
M  END
$$$$
