/Users/cafierom/python_mac/peptidebuilder/runs/oxybenzone/folds/dock_stage/rf3/ox2_esm1_f8_rf3cof_ligand.sdf.ligand.pdb
 OpenBabel10092620473D

 17 18  0  0  0  0  0  0  0  0999 V2000
   -0.8870   -7.8370    2.3910 C   0  0  0  0  0  0  0  0  0  0  0  0
   -1.4230   -6.5520    2.6920 O   0  0  0  0  0  0  0  0  0  0  0  0
   -1.6370   -5.6480    1.6830 C   0  0  0  0  0  0  0  0  0  0  0  0
   -2.0870   -4.4030    2.0330 C   0  0  0  0  0  0  0  0  0  0  0  0
   -2.3300   -3.4490    1.0980 C   0  0  0  0  0  0  0  0  0  0  0  0
   -2.1100   -3.7200   -0.2130 C   0  0  0  0  0  0  0  0  0  0  0  0
   -2.3850   -2.6340   -1.1590 C   0  0  0  0  0  0  0  0  0  0  0  0
   -3.0250   -1.6500   -0.7560 O   0  0  0  0  0  0  0  0  0  0  0  0
   -1.8620   -2.5520   -2.4930 C   0  0  0  0  0  0  0  0  0  0  0  0
   -0.7030   -1.8450   -2.7100 C   0  0  0  0  0  0  0  0  0  0  0  0
   -0.1960   -1.7650   -3.9930 C   0  0  0  0  0  0  0  0  0  0  0  0
   -0.8660   -2.3880   -5.0210 C   0  0  0  0  0  0  0  0  0  0  0  0
   -2.0330   -3.0770   -4.7860 C   0  0  0  0  0  0  0  0  0  0  0  0
   -2.5440   -3.1650   -3.5230 C   0  0  0  0  0  0  0  0  0  0  0  0
   -1.6330   -5.0230   -0.6010 C   0  0  0  0  0  0  0  0  0  0  0  0
   -1.4150   -5.3150   -1.8470 O   0  0  0  0  0  0  0  0  0  0  0  0
   -1.4200   -5.9670    0.3870 C   0  0  0  0  0  0  0  0  0  0  0  0
  1  2  1  0  0  0  0
  3  4  1  0  0  0  0
  3  2  1  0  0  0  0
  5  4  2  0  0  0  0
  6  5  1  0  0  0  0
  7  8  2  0  0  0  0
  7  6  1  0  0  0  0
  9  7  1  0  0  0  0
 10  9  1  0  0  0  0
 11 10  2  0  0  0  0
 12 13  2  0  0  0  0
 12 11  1  0  0  0  0
 13 14  1  0  0  0  0
 14  9  2  0  0  0  0
 15  6  2  0  0  0  0
 15 17  1  0  0  0  0
 16 15  1  0  0  0  0
 17  3  2  0  0  0  0
M  END
$$$$
