/Users/cafierom/python_mac/peptidebuilder/runs/oxybenzone/folds/dock_stage/rf3/ox2_shuffle_rf3cof_ligand.sdf.ligand.pdb
 OpenBabel10092620493D

 17 18  0  0  1  0  0  0  0  0999 V2000
   -3.0190    6.1170    4.7730 C   0  0  0  0  0  0  0  0  0  0  0  0
   -2.6640    6.1600    6.1250 O   0  0  0  0  0  0  0  0  0  0  0  0
   -2.9160    5.0650    6.9120 C   0  0  0  0  0  0  0  0  0  0  0  0
   -3.4360    5.2950    8.1550 C   0  0  0  0  0  0  0  0  0  0  0  0
   -3.6730    4.2600    8.9970 C   0  0  0  0  0  0  0  0  0  0  0  0
   -3.3970    2.9630    8.6150 C   0  0  0  0  0  0  0  0  0  0  0  0
   -3.6460    1.8650    9.4830 C   0  0  2  0  0  0  0  0  0  0  0  0
   -2.7100    1.0030    9.6750 O   0  0  0  0  0  0  0  0  0  0  0  0
   -4.9130    1.6180   10.0920 C   0  0  0  0  0  0  0  0  0  0  0  0
   -4.9670    0.9350   11.2540 C   0  0  0  0  0  0  0  0  0  0  0  0
   -6.1790    0.6970   11.8680 C   0  0  0  0  0  0  0  0  0  0  0  0
   -7.3380    1.1470   11.2530 C   0  0  0  0  0  0  0  0  0  0  0  0
   -7.2580    1.8040   10.0570 C   0  0  0  0  0  0  0  0  0  0  0  0
   -6.0720    2.0360    9.4770 C   0  0  0  0  0  0  0  0  0  0  0  0
   -2.8800    2.7040    7.3200 C   0  0  0  0  0  0  0  0  0  0  0  0
   -2.6120    1.4700    6.9710 O   0  0  0  0  0  0  0  0  0  0  0  0
   -2.6280    3.7790    6.4830 C   0  0  0  0  0  0  0  0  0  0  0  0
  1  2  1  0  0  0  0
  2  3  1  0  0  0  0
  3  4  1  0  0  0  0
  4  5  2  0  0  0  0
  6  5  1  0  0  0  0
  6  7  1  0  0  0  0
  7  8  1  6  0  0  0
  7  9  1  0  0  0  0
  9 10  1  0  0  0  0
 10 11  2  0  0  0  0
 12 11  1  0  0  0  0
 13 12  2  0  0  0  0
 14 13  1  0  0  0  0
 14  9  2  0  0  0  0
 15  6  2  0  0  0  0
 16 15  1  0  0  0  0
 17  3  2  0  0  0  0
 17 15  1  0  0  0  0
M  END
$$$$
