/Users/cafierom/python_mac/peptidebuilder/runs/oxybenzone/folds/dock_stage/rf3/ox2_shuffle_esm0_rf3cof_ligand.sdf.ligand.pdb
 OpenBabel10092620493D

 17 18  0  0  0  0  0  0  0  0999 V2000
   -0.5700    3.5600    7.6570 C   0  0  0  0  0  0  0  0  0  0  0  0
   -0.6090    4.9180    7.3050 O   0  0  0  0  0  0  0  0  0  0  0  0
   -1.8030    5.4700    6.8980 C   0  0  0  0  0  0  0  0  0  0  0  0
   -1.7620    6.7120    6.3220 C   0  0  0  0  0  0  0  0  0  0  0  0
   -2.9280    7.3080    5.8950 C   0  0  0  0  0  0  0  0  0  0  0  0
   -4.1260    6.6640    6.0550 C   0  0  0  0  0  0  0  0  0  0  0  0
   -5.3920    7.2260    5.5930 C   0  0  0  0  0  0  0  0  0  0  0  0
   -6.3150    6.4230    5.3220 O   0  0  0  0  0  0  0  0  0  0  0  0
   -5.7080    8.6260    5.4480 C   0  0  0  0  0  0  0  0  0  0  0  0
   -4.9930    9.6080    6.0760 C   0  0  0  0  0  0  0  0  0  0  0  0
   -5.3270   10.9110    5.9240 C   0  0  0  0  0  0  0  0  0  0  0  0
   -6.3650   11.2300    5.1380 C   0  0  0  0  0  0  0  0  0  0  0  0
   -7.1290   10.3040    4.5240 C   0  0  0  0  0  0  0  0  0  0  0  0
   -6.7970    8.9630    4.6700 C   0  0  0  0  0  0  0  0  0  0  0  0
   -4.1510    5.3800    6.6600 C   0  0  0  0  0  0  0  0  0  0  0  0
   -5.3040    4.7860    6.7980 O   0  0  0  0  0  0  0  0  0  0  0  0
   -2.9730    4.8030    7.0760 C   0  0  0  0  0  0  0  0  0  0  0  0
  2  1  1  0  0  0  0
  3 17  1  0  0  0  0
  3  2  1  0  0  0  0
  4  3  2  0  0  0  0
  5  6  2  0  0  0  0
  5  4  1  0  0  0  0
  6 15  1  0  0  0  0
  7  6  1  0  0  0  0
  8  7  2  0  0  0  0
  9  7  1  0  0  0  0
  9 10  1  0  0  0  0
 11 10  2  0  0  0  0
 12 11  1  0  0  0  0
 13 14  1  0  0  0  0
 13 12  2  0  0  0  0
 14  9  2  0  0  0  0
 15 16  1  0  0  0  0
 15 17  2  0  0  0  0
M  END
$$$$
