ox3_orig_f8_ligand
     RDKit          3D

 29 30  0  0  0  0  0  0  0  0999 V2000
  -13.9503   11.7919   -1.8173 C   0  0  0  0  0  0  0  0  0  0  0  0
  -12.6985   11.2281   -2.2092 O   0  0  0  0  0  0  0  0  0  0  0  0
  -11.6316   11.2455   -1.3441 C   0  0  0  0  0  0  0  0  0  0  0  0
  -11.6823   11.8921   -0.1078 C   0  0  0  0  0  0  0  0  0  0  0  0
  -10.5754   11.8813    0.7261 C   0  0  0  0  0  0  0  0  0  0  0  0
   -9.4071   11.2322    0.3388 C   0  0  0  0  0  0  0  0  0  0  0  0
   -8.2027   11.2038    1.2369 C   0  0  0  0  0  0  0  0  0  0  0  0
   -7.2532   10.5378    0.8984 O   0  0  0  0  0  0  0  0  0  0  0  0
   -8.1543   11.9291    2.5305 C   0  0  0  0  0  0  0  0  0  0  0  0
   -8.5143   13.2662    2.6260 C   0  0  0  0  0  0  0  0  0  0  0  0
   -8.4243   13.9243    3.8387 C   0  0  0  0  0  0  0  0  0  0  0  0
   -8.0271   13.2560    4.9798 C   0  0  0  0  0  0  0  0  0  0  0  0
   -7.6512   11.9263    4.8917 C   0  0  0  0  0  0  0  0  0  0  0  0
   -7.6926   11.2622    3.6651 C   0  0  0  0  0  0  0  0  0  0  0  0
   -9.3711   10.5809   -0.8938 C   0  0  0  0  0  0  0  0  0  0  0  0
   -8.2391    9.9217   -1.2709 O   0  0  0  0  0  0  0  0  0  0  0  0
  -10.4859   10.5937   -1.7230 C   0  0  0  0  0  0  0  0  0  0  0  0
  -14.2645   11.3555   -0.8577 H   0  0  0  0  0  0  0  0  0  0  0  0
  -13.8434   12.8812   -1.7073 H   0  0  0  0  0  0  0  0  0  0  0  0
  -14.7072   11.5733   -2.5849 H   0  0  0  0  0  0  0  0  0  0  0  0
  -12.6010   12.4103    0.2045 H   0  0  0  0  0  0  0  0  0  0  0  0
  -10.6207   12.3893    1.7008 H   0  0  0  0  0  0  0  0  0  0  0  0
   -8.8718   13.8034    1.7352 H   0  0  0  0  0  0  0  0  0  0  0  0
   -8.6726   14.9944    3.8951 H   0  0  0  0  0  0  0  0  0  0  0  0
   -8.0094   13.7750    5.9495 H   0  0  0  0  0  0  0  0  0  0  0  0
   -7.3183   11.3909    5.7931 H   0  0  0  0  0  0  0  0  0  0  0  0
   -7.3621   10.2155    3.5933 H   0  0  0  0  0  0  0  0  0  0  0  0
   -8.2049    9.4567   -2.1442 H   0  0  0  0  0  0  0  0  0  0  0  0
  -10.4493   10.0759   -2.6928 H   0  0  0  0  0  0  0  0  0  0  0  0
  2  1  1  0
  3  2  1  0
  4  3  1  0
  5  4  2  0
  6  5  1  0
  7  6  1  0
  8  7  2  0
  9  7  1  0
 10  9  2  0
 11 10  1  0
 12 11  2  0
 13 12  1  0
 14 13  2  0
 14  9  1  0
 15  6  2  0
 16 15  1  0
 17 15  1  0
 17  3  2  0
  1 18  1  0
  1 19  1  0
  1 20  1  0
  4 21  1  0
  5 22  1  0
 10 23  1  0
 11 24  1  0
 12 25  1  0
 13 26  1  0
 14 27  1  0
 16 28  1  0
 17 29  1  0
M  END
$$$$
