/Users/cafierom/python_mac/peptidebuilder/runs/oxybenzone/folds/dock_stage/rf3/ox3_orig_f8_rf3cof_ligand.sdf.ligand.pdb
 OpenBabel10092620503D

 17 18  0  0  1  0  0  0  0  0999 V2000
  -13.2350   10.2300   -2.5620 C   0  0  0  0  0  0  0  0  0  0  0  0
  -12.9880   11.2890   -1.6680 O   0  0  0  0  0  0  0  0  0  0  0  0
  -11.8090   11.3460   -1.0330 C   0  0  0  0  0  0  0  0  0  0  0  0
  -11.6070   12.3830   -0.1690 C   0  0  0  0  0  0  0  0  0  0  0  0
  -10.4380   12.5280    0.4820 C   0  0  0  0  0  0  0  0  0  0  0  0
   -9.3870   11.6110    0.2930 C   0  0  0  0  0  0  0  0  0  0  0  0
   -8.1480   11.7750    0.9790 C   0  0  2  0  0  0  0  0  0  0  0  0
   -7.0330   11.5330    0.3290 O   0  0  0  0  0  0  0  0  0  0  0  0
   -8.1030   12.1040    2.3920 C   0  0  0  0  0  0  0  0  0  0  0  0
   -7.2870   13.1220    2.8230 C   0  0  0  0  0  0  0  0  0  0  0  0
   -7.2620   13.4160    4.1730 C   0  0  0  0  0  0  0  0  0  0  0  0
   -8.0180   12.6900    5.0570 C   0  0  0  0  0  0  0  0  0  0  0  0
   -8.8100   11.6710    4.6000 C   0  0  0  0  0  0  0  0  0  0  0  0
   -8.8370   11.3550    3.2700 C   0  0  0  0  0  0  0  0  0  0  0  0
   -9.5850   10.5270   -0.5880 C   0  0  0  0  0  0  0  0  0  0  0  0
   -8.6100    9.6760   -0.7580 O   0  0  0  0  0  0  0  0  0  0  0  0
  -10.8040   10.4170   -1.2540 C   0  0  0  0  0  0  0  0  0  0  0  0
  1  2  1  0  0  0  0
  2  3  1  0  0  0  0
  3  4  1  0  0  0  0
  4  5  2  0  0  0  0
  6  5  1  0  0  0  0
  6  7  1  0  0  0  0
  7  8  1  1  0  0  0
  7  9  1  0  0  0  0
  9 10  2  0  0  0  0
  9 14  1  0  0  0  0
 10 11  1  0  0  0  0
 11 12  2  0  0  0  0
 13 12  1  0  0  0  0
 14 13  2  0  0  0  0
 15  6  2  0  0  0  0
 16 15  1  0  0  0  0
 17  3  2  0  0  0  0
 17 15  1  0  0  0  0
M  END
$$$$
