shuffle_control_esm0_ligand
 OpenBabel10092621113D

 20 20  0  0  1  0  0  0  0  0999 V2000
   -3.0580    2.0640   -2.2470 C   0  0  0  0  0  0  0  0  0  0  0  0
   -4.1420    1.5760   -2.2100 O   0  0  0  0  0  0  0  0  0  0  0  0
   -1.8790    1.4260   -2.9080 C   0  0  0  0  0  3  0  0  0  0  0  0
   -1.7320    0.1130   -2.9130 C   0  0  0  0  0  3  0  0  0  0  0  0
   -0.5180   -0.5780   -3.4420 C   0  0  0  0  0  0  0  0  0  0  0  0
   -0.6890   -1.5990   -4.3430 C   0  0  0  0  0  3  0  0  0  0  0  0
    0.4010   -2.2940   -4.8450 C   0  0  0  0  0  3  0  0  0  0  0  0
    1.6840   -1.9620   -4.4540 C   0  0  0  0  0  0  0  0  0  0  0  0
    1.8590   -0.9180   -3.5440 C   0  0  0  0  0  3  0  0  0  0  0  0
    0.7560   -0.2190   -3.0450 C   0  0  0  0  0  3  0  0  0  0  0  0
    2.7710   -2.6200   -4.9090 O   0  0  0  0  0  0  0  0  0  0  0  0
    3.5890   -2.0160   -5.9100 C   0  0  0  0  0  1  0  0  0  0  0  0
   -2.7940    3.2640   -1.6710 O   0  0  0  0  0  0  0  0  0  0  0  0
   -3.1030    3.5450   -0.3110 C   0  0  2  0  0  3  0  0  0  0  0  0
   -4.1420    4.6420   -0.1630 C   0  0  0  0  0  2  0  0  0  0  0  0
   -5.5790    4.2180   -0.2680 C   0  0  0  0  0  1  0  0  0  0  0  0
   -1.8510    4.0080    0.3590 C   0  0  0  0  0  2  0  0  0  0  0  0
   -2.0650    4.8300    1.5830 C   0  0  0  0  0  3  0  0  0  0  0  0
   -1.4960    5.2470    4.0350 C   0  0  0  0  0  1  0  0  0  0  0  0
   -1.4490    4.3370    2.8570 C   0  0  0  0  0  3  0  0  0  0  0  0
  1  2  2  0  0  0  0
  1 13  1  0  0  0  0
  3  1  1  0  0  0  0
  4  3  2  0  0  0  0
  5 10  1  0  0  0  0
  5  4  1  0  0  0  0
  6  5  2  0  0  0  0
  7  8  2  0  0  0  0
  7  6  1  0  0  0  0
  8  9  1  0  0  0  0
  9 10  2  0  0  0  0
 11  8  1  0  0  0  0
 12 11  1  0  0  0  0
 13 14  1  0  0  0  0
 14 15  1  6  0  0  0
 14 17  1  0  0  0  0
 16 15  1  0  0  0  0
 17 18  1  0  0  0  0
 18 20  2  0  0  0  0
 20 19  1  0  0  0  0
M  END
>  <MODEL>
1

>  <REMARK>
 VINA RESULT:      -4.9      0.000      0.000
  Name = shuffle_control_esm0_ligand
  12 active torsions:
  status: ('A' for Active; 'I' for Inactive)
    1  A    between atoms: C_1  and  C_2
    2  A    between atoms: C_2  and  C_3
    3  A    between atoms: C_3  and  C_4
    4  A    between atoms: C_4  and  C_5
    5  A    between atoms: C_5  and  C_6
    6  A    between atoms: C_5  and  O_8
    7  A    between atoms: C_6  and  C_7
    8  A    between atoms: O_8  and  C_9
    9  A    between atoms: C_9  and  C_11
   10  A    between atoms: C_12  and  C_13
   11  A    between atoms: C_16  and  O_17
   12  A    between atoms: O_17  and  C_18
                            x       y       z     vdW  Elec       q    Type
                         _______ _______ _______ _____ _____    ______ ____

>  <TORSDO>
F 9

$$$$
shuffle_control_esm0_ligand
 OpenBabel10092621113D

 20 20  0  0  1  0  0  0  0  0999 V2000
   -4.2540    2.0290   -2.0900 C   0  0  0  0  0  0  0  0  0  0  0  0
   -5.4020    1.7260   -2.1770 O   0  0  0  0  0  0  0  0  0  0  0  0
   -3.6600    2.7130   -0.9020 C   0  0  0  0  0  3  0  0  0  0  0  0
   -3.4540    4.0190   -0.9040 C   0  0  0  0  0  3  0  0  0  0  0  0
   -2.7500    4.7420    0.1970 C   0  0  0  0  0  0  0  0  0  0  0  0
   -2.0160    4.0090    1.0950 C   0  0  0  0  0  3  0  0  0  0  0  0
   -1.3650    4.6260    2.1540 C   0  0  0  0  0  3  0  0  0  0  0  0
   -1.4350    5.9960    2.3160 C   0  0  0  0  0  0  0  0  0  0  0  0
   -2.1740    6.7440    1.3980 C   0  0  0  0  0  3  0  0  0  0  0  0
   -2.8250    6.1160    0.3310 C   0  0  0  0  0  3  0  0  0  0  0  0
   -0.8270    6.6340    3.3380 O   0  0  0  0  0  0  0  0  0  0  0  0
   -0.2860    5.8730    4.4170 C   0  0  0  0  0  1  0  0  0  0  0  0
   -3.3730    1.7790   -3.0900 O   0  0  0  0  0  0  0  0  0  0  0  0
   -2.0280    1.3820   -2.8460 C   0  0  2  0  0  3  0  0  0  0  0  0
   -1.0230    2.4430   -3.2560 C   0  0  0  0  0  2  0  0  0  0  0  0
   -0.1460    2.9880   -2.1660 C   0  0  0  0  0  1  0  0  0  0  0  0
   -1.7560    0.1560   -3.6540 C   0  0  0  0  0  2  0  0  0  0  0  0
   -0.7970   -0.8000   -3.0320 C   0  0  0  0  0  2  0  0  0  0  0  0
    1.6690   -0.1490   -2.9980 C   0  0  0  0  0  1  0  0  0  0  0  0
    0.5650   -0.9060   -3.6490 C   0  0  0  0  0  2  0  0  0  0  0  0
  1  3  1  0  0  0  0
  2  1  2  0  0  0  0
  4  3  2  0  0  0  0
  4  5  1  0  0  0  0
  5 10  2  0  0  0  0
  5  6  1  0  0  0  0
  6  7  2  0  0  0  0
  7  8  1  0  0  0  0
  8 11  1  0  0  0  0
  9  8  2  0  0  0  0
 10  9  1  0  0  0  0
 11 12  1  0  0  0  0
 13 14  1  0  0  0  0
 13  1  1  0  0  0  0
 14 17  1  6  0  0  0
 15 14  1  0  0  0  0
 15 16  1  0  0  0  0
 17 18  1  0  0  0  0
 20 18  1  0  0  0  0
 20 19  1  0  0  0  0
M  END
>  <MODEL>
2

>  <REMARK>
 VINA RESULT:      -4.8      2.300      7.747
  Name = shuffle_control_esm0_ligand
  12 active torsions:
  status: ('A' for Active; 'I' for Inactive)
    1  A    between atoms: C_1  and  C_2
    2  A    between atoms: C_2  and  C_3
    3  A    between atoms: C_3  and  C_4
    4  A    between atoms: C_4  and  C_5
    5  A    between atoms: C_5  and  C_6
    6  A    between atoms: C_5  and  O_8
    7  A    between atoms: C_6  and  C_7
    8  A    between atoms: O_8  and  C_9
    9  A    between atoms: C_9  and  C_11
   10  A    between atoms: C_12  and  C_13
   11  A    between atoms: C_16  and  O_17
   12  A    between atoms: O_17  and  C_18
                            x       y       z     vdW  Elec       q    Type
                         _______ _______ _______ _____ _____    ______ ____

>  <TORSDO>
F 9

$$$$
shuffle_control_esm0_ligand
 OpenBabel10092621113D

 20 20  0  0  1  0  0  0  0  0999 V2000
   -1.8050    2.9190   -1.8940 C   0  0  0  0  0  0  0  0  0  0  0  0
   -0.7720    3.3530   -1.4930 O   0  0  0  0  0  0  0  0  0  0  0  0
   -1.9310    1.6390   -2.6560 C   0  0  0  0  0  3  0  0  0  0  0  0
   -0.8670    1.0460   -3.1680 C   0  0  0  0  0  3  0  0  0  0  0  0
   -0.9400   -0.1610   -4.0450 C   0  0  0  0  0  0  0  0  0  0  0  0
   -1.7210   -0.1040   -5.1720 C   0  0  0  0  0  3  0  0  0  0  0  0
   -1.8480   -1.2050   -6.0060 C   0  0  0  0  0  3  0  0  0  0  0  0
   -1.1780   -2.3790   -5.7220 C   0  0  0  0  0  0  0  0  0  0  0  0
   -0.3770   -2.4360   -4.5810 C   0  0  0  0  0  3  0  0  0  0  0  0
   -0.2500   -1.3210   -3.7460 C   0  0  0  0  0  3  0  0  0  0  0  0
   -1.2840   -3.4770   -6.5010 O   0  0  0  0  0  0  0  0  0  0  0  0
   -1.7050   -3.3360   -7.8570 C   0  0  0  0  0  1  0  0  0  0  0  0
   -2.9780    3.5700   -1.6950 O   0  0  0  0  0  0  0  0  0  0  0  0
   -3.4910    3.8440   -0.3960 C   0  0  2  0  0  3  0  0  0  0  0  0
   -4.9900    3.6270   -0.3030 C   0  0  0  0  0  2  0  0  0  0  0  0
   -5.8580    4.7380   -0.8170 C   0  0  0  0  0  1  0  0  0  0  0  0
   -3.2170    5.2800   -0.0870 C   0  0  0  0  0  2  0  0  0  0  0  0
   -2.2440    5.5050    1.0180 C   0  0  0  0  0  2  0  0  0  0  0  0
   -1.4360    4.4450    3.1930 C   0  0  0  0  0  1  0  0  0  0  0  0
   -1.7370    4.2950    1.7430 C   0  0  0  0  0  2  0  0  0  0  0  0
  1 13  1  0  0  0  0
  1  2  2  0  0  0  0
  3  1  1  0  0  0  0
  4  3  2  0  0  0  0
  5 10  1  0  0  0  0
  5  4  1  0  0  0  0
  6  5  2  0  0  0  0
  7  8  2  0  0  0  0
  7  6  1  0  0  0  0
  8  9  1  0  0  0  0
  9 10  2  0  0  0  0
 11  8  1  0  0  0  0
 12 11  1  0  0  0  0
 13 14  1  0  0  0  0
 14 15  1  6  0  0  0
 14 17  1  0  0  0  0
 16 15  1  0  0  0  0
 17 18  1  0  0  0  0
 18 20  1  0  0  0  0
 20 19  1  0  0  0  0
M  END
>  <MODEL>
3

>  <REMARK>
 VINA RESULT:      -4.6      1.821      2.407
  Name = shuffle_control_esm0_ligand
  12 active torsions:
  status: ('A' for Active; 'I' for Inactive)
    1  A    between atoms: C_1  and  C_2
    2  A    between atoms: C_2  and  C_3
    3  A    between atoms: C_3  and  C_4
    4  A    between atoms: C_4  and  C_5
    5  A    between atoms: C_5  and  C_6
    6  A    between atoms: C_5  and  O_8
    7  A    between atoms: C_6  and  C_7
    8  A    between atoms: O_8  and  C_9
    9  A    between atoms: C_9  and  C_11
   10  A    between atoms: C_12  and  C_13
   11  A    between atoms: C_16  and  O_17
   12  A    between atoms: O_17  and  C_18
                            x       y       z     vdW  Elec       q    Type
                         _______ _______ _______ _____ _____    ______ ____

>  <TORSDO>
F 9

$$$$
shuffle_control_esm0_ligand
 OpenBabel10092621113D

 20 20  0  0  1  0  0  0  0  0999 V2000
    0.0840   -2.1170   -4.6730 C   0  0  0  0  0  0  0  0  0  0  0  0
    1.2140   -2.3940   -4.9220 O   0  0  0  0  0  0  0  0  0  0  0  0
   -0.3190   -1.0550   -3.7010 C   0  0  0  0  0  3  0  0  0  0  0  0
   -0.8990    0.0580   -4.1140 C   0  0  0  0  0  3  0  0  0  0  0  0
   -1.2100    1.2080   -3.2130 C   0  0  0  0  0  0  0  0  0  0  0  0
   -0.1930    2.0660   -2.8750 C   0  0  0  0  0  3  0  0  0  0  0  0
   -0.4190    3.1340   -2.0190 C   0  0  0  0  0  3  0  0  0  0  0  0
   -1.6780    3.3590   -1.4970 C   0  0  0  0  0  0  0  0  0  0  0  0
   -2.7140    2.4920   -1.8460 C   0  0  0  0  0  3  0  0  0  0  0  0
   -2.4810    1.4200   -2.7130 C   0  0  0  0  0  3  0  0  0  0  0  0
   -1.9370    4.3790   -0.6510 O   0  0  0  0  0  0  0  0  0  0  0  0
   -3.0620    4.2960    0.2230 C   0  0  0  0  0  1  0  0  0  0  0  0
   -0.9550   -2.7630   -5.2570 O   0  0  0  0  0  0  0  0  0  0  0  0
   -1.1790   -2.7400   -6.6630 C   0  0  2  0  0  3  0  0  0  0  0  0
   -1.8840   -1.4770   -7.1210 C   0  0  0  0  0  2  0  0  0  0  0  0
   -3.3370   -1.3570   -6.7640 C   0  0  0  0  0  1  0  0  0  0  0  0
   -2.0520   -3.9030   -7.0090 C   0  0  0  0  0  2  0  0  0  0  0  0
   -1.8650   -4.4340   -8.3880 C   0  0  0  0  0  2  0  0  0  0  0  0
   -3.8510   -5.9780   -7.9660 C   0  0  0  0  0  1  0  0  0  0  0  0
   -2.6270   -5.6710   -8.7560 C   0  0  0  0  0  2  0  0  0  0  0  0
  1  3  1  0  0  0  0
  2  1  2  0  0  0  0
  4  3  2  0  0  0  0
  4  5  1  0  0  0  0
  5  6  2  0  0  0  0
  5 10  1  0  0  0  0
  6  7  1  0  0  0  0
  7  8  2  0  0  0  0
  8 11  1  0  0  0  0
  9  8  1  0  0  0  0
 10  9  2  0  0  0  0
 11 12  1  0  0  0  0
 13  1  1  0  0  0  0
 14 15  1  1  0  0  0
 14 13  1  0  0  0  0
 15 16  1  0  0  0  0
 17 14  1  0  0  0  0
 18 17  1  0  0  0  0
 20 18  1  0  0  0  0
 20 19  1  0  0  0  0
M  END
>  <MODEL>
4

>  <REMARK>
 VINA RESULT:      -4.6      2.973      8.893
  Name = shuffle_control_esm0_ligand
  12 active torsions:
  status: ('A' for Active; 'I' for Inactive)
    1  A    between atoms: C_1  and  C_2
    2  A    between atoms: C_2  and  C_3
    3  A    between atoms: C_3  and  C_4
    4  A    between atoms: C_4  and  C_5
    5  A    between atoms: C_5  and  C_6
    6  A    between atoms: C_5  and  O_8
    7  A    between atoms: C_6  and  C_7
    8  A    between atoms: O_8  and  C_9
    9  A    between atoms: C_9  and  C_11
   10  A    between atoms: C_12  and  C_13
   11  A    between atoms: C_16  and  O_17
   12  A    between atoms: O_17  and  C_18
                            x       y       z     vdW  Elec       q    Type
                         _______ _______ _______ _____ _____    ______ ____

>  <TORSDO>
F 9

$$$$
shuffle_control_esm0_ligand
 OpenBabel10092621113D

 20 20  0  0  1  0  0  0  0  0999 V2000
   -4.9520    2.3650   -2.2510 C   0  0  0  0  0  0  0  0  0  0  0  0
   -5.9390    1.8360   -2.6540 O   0  0  0  0  0  0  0  0  0  0  0  0
   -3.6210    1.6900   -2.1670 C   0  0  0  0  0  3  0  0  0  0  0  0
   -2.6490    1.9990   -3.0080 C   0  0  0  0  0  3  0  0  0  0  0  0
   -1.3440    1.2760   -3.0600 C   0  0  0  0  0  0  0  0  0  0  0  0
   -1.3590   -0.0920   -3.1690 C   0  0  0  0  0  3  0  0  0  0  0  0
   -0.1770   -0.8170   -3.1910 C   0  0  0  0  0  3  0  0  0  0  0  0
    1.0420   -0.1720   -3.1160 C   0  0  0  0  0  0  0  0  0  0  0  0
    1.0590    1.2200   -3.0130 C   0  0  0  0  0  3  0  0  0  0  0  0
   -0.1360    1.9450   -2.9940 C   0  0  0  0  0  3  0  0  0  0  0  0
    2.2150   -0.8400   -3.1220 O   0  0  0  0  0  0  0  0  0  0  0  0
    3.4360   -0.1140   -2.9950 C   0  0  0  0  0  1  0  0  0  0  0  0
   -4.9560    3.6490   -1.8170 O   0  0  0  0  0  0  0  0  0  0  0  0
   -5.1120    3.9940   -0.4450 C   0  0  2  0  0  3  0  0  0  0  0  0
   -6.4490    4.6520   -0.1570 C   0  0  0  0  0  2  0  0  0  0  0  0
   -6.9580    5.6110   -1.1940 C   0  0  0  0  0  1  0  0  0  0  0  0
   -4.0370    4.9690   -0.0900 C   0  0  0  0  0  2  0  0  0  0  0  0
   -2.8220    4.3610    0.5220 C   0  0  0  0  0  3  0  0  0  0  0  0
   -1.5490    5.1880   -1.5280 C   0  0  0  0  0  1  0  0  0  0  0  0
   -1.5750    4.3340   -0.3090 C   0  0  0  0  0  3  0  0  0  0  0  0
  1  3  1  0  0  0  0
  1 13  1  0  0  0  0
  2  1  2  0  0  0  0
  4  3  2  0  0  0  0
  5  4  1  0  0  0  0
  5 10  1  0  0  0  0
  6  5  2  0  0  0  0
  7  6  1  0  0  0  0
  7  8  2  0  0  0  0
  8  9  1  0  0  0  0
  9 10  2  0  0  0  0
 11  8  1  0  0  0  0
 11 12  1  0  0  0  0
 13 14  1  0  0  0  0
 14 15  1  6  0  0  0
 14 17  1  0  0  0  0
 16 15  1  0  0  0  0
 17 18  1  0  0  0  0
 19 20  1  0  0  0  0
 20 18  2  0  0  0  0
M  END
>  <MODEL>
5

>  <REMARK>
 VINA RESULT:      -4.5      1.863      2.569
  Name = shuffle_control_esm0_ligand
  12 active torsions:
  status: ('A' for Active; 'I' for Inactive)
    1  A    between atoms: C_1  and  C_2
    2  A    between atoms: C_2  and  C_3
    3  A    between atoms: C_3  and  C_4
    4  A    between atoms: C_4  and  C_5
    5  A    between atoms: C_5  and  C_6
    6  A    between atoms: C_5  and  O_8
    7  A    between atoms: C_6  and  C_7
    8  A    between atoms: O_8  and  C_9
    9  A    between atoms: C_9  and  C_11
   10  A    between atoms: C_12  and  C_13
   11  A    between atoms: C_16  and  O_17
   12  A    between atoms: O_17  and  C_18
                            x       y       z     vdW  Elec       q    Type
                         _______ _______ _______ _____ _____    ______ ____

>  <TORSDO>
F 9

$$$$
shuffle_control_esm0_ligand
 OpenBabel10092621113D

 20 20  0  0  1  0  0  0  0  0999 V2000
   -1.3280    4.8910    3.4760 C   0  0  0  0  0  0  0  0  0  0  0  0
   -2.1610    4.9240    4.3250 O   0  0  0  0  0  0  0  0  0  0  0  0
   -1.4590    4.1110    2.2080 C   0  0  0  0  0  3  0  0  0  0  0  0
   -2.1550    4.5840    1.1890 C   0  0  0  0  0  3  0  0  0  0  0  0
   -2.4300    3.8020   -0.0530 C   0  0  0  0  0  0  0  0  0  0  0  0
   -3.6990    3.3210   -0.2550 C   0  0  0  0  0  3  0  0  0  0  0  0
   -4.0040    2.5640   -1.3770 C   0  0  0  0  0  3  0  0  0  0  0  0
   -3.0330    2.2900   -2.3210 C   0  0  0  0  0  0  0  0  0  0  0  0
   -1.7430    2.7860   -2.1210 C   0  0  0  0  0  3  0  0  0  0  0  0
   -1.4450    3.5520   -0.9900 C   0  0  0  0  0  3  0  0  0  0  0  0
   -3.2840    1.5480   -3.4200 O   0  0  0  0  0  0  0  0  0  0  0  0
   -2.1930    1.0250   -4.1770 C   0  0  0  0  0  1  0  0  0  0  0  0
   -0.1590    5.5690    3.5970 O   0  0  0  0  0  0  0  0  0  0  0  0
   -0.0740    6.9820    3.4500 C   0  0  2  0  0  3  0  0  0  0  0  0
   -1.3970    7.6080    3.0490 C   0  0  0  0  0  2  0  0  0  0  0  0
   -1.9090    8.7090    3.9330 C   0  0  0  0  0  1  0  0  0  0  0  0
    0.9160    7.2730    2.3690 C   0  0  0  0  0  2  0  0  0  0  0  0
    0.3270    7.4370    1.0110 C   0  0  0  0  0  3  0  0  0  0  0  0
    1.5820    5.3050    0.3890 C   0  0  0  0  0  1  0  0  0  0  0  0
    0.7600    6.4670   -0.0470 C   0  0  0  0  0  3  0  0  0  0  0  0
  1 13  1  0  0  0  0
  1  2  2  0  0  0  0
  3  1  1  0  0  0  0
  4  3  2  0  0  0  0
  5  4  1  0  0  0  0
  6  5  1  0  0  0  0
  7  6  2  0  0  0  0
  8  9  2  0  0  0  0
  8  7  1  0  0  0  0
  9 10  1  0  0  0  0
 10  5  2  0  0  0  0
 11  8  1  0  0  0  0
 12 11  1  0  0  0  0
 14 17  1  6  0  0  0
 14 13  1  0  0  0  0
 15 14  1  0  0  0  0
 15 16  1  0  0  0  0
 18 17  1  0  0  0  0
 20 19  1  0  0  0  0
 20 18  2  0  0  0  0
M  END
>  <MODEL>
6

>  <REMARK>
 VINA RESULT:      -4.5      3.262      6.079
  Name = shuffle_control_esm0_ligand
  12 active torsions:
  status: ('A' for Active; 'I' for Inactive)
    1  A    between atoms: C_1  and  C_2
    2  A    between atoms: C_2  and  C_3
    3  A    between atoms: C_3  and  C_4
    4  A    between atoms: C_4  and  C_5
    5  A    between atoms: C_5  and  C_6
    6  A    between atoms: C_5  and  O_8
    7  A    between atoms: C_6  and  C_7
    8  A    between atoms: O_8  and  C_9
    9  A    between atoms: C_9  and  C_11
   10  A    between atoms: C_12  and  C_13
   11  A    between atoms: C_16  and  O_17
   12  A    between atoms: O_17  and  C_18
                            x       y       z     vdW  Elec       q    Type
                         _______ _______ _______ _____ _____    ______ ____

>  <TORSDO>
F 9

$$$$
shuffle_control_esm0_ligand
 OpenBabel10092621113D

 20 20  0  0  1  0  0  0  0  0999 V2000
   -3.6330    2.6930   -1.3060 C   0  0  0  0  0  0  0  0  0  0  0  0
   -4.7320    2.9130   -0.9070 O   0  0  0  0  0  0  0  0  0  0  0  0
   -3.2990    1.5970   -2.2660 C   0  0  0  0  0  3  0  0  0  0  0  0
   -2.0440    1.3380   -2.5910 C   0  0  0  0  0  3  0  0  0  0  0  0
   -1.6520    0.3460   -3.6360 C   0  0  0  0  0  0  0  0  0  0  0  0
   -0.8280   -0.6900   -3.2770 C   0  0  0  0  0  3  0  0  0  0  0  0
   -0.4090   -1.6240   -4.2130 C   0  0  0  0  0  3  0  0  0  0  0  0
   -0.8250   -1.5330   -5.5270 C   0  0  0  0  0  0  0  0  0  0  0  0
   -1.6710   -0.4840   -5.8920 C   0  0  0  0  0  3  0  0  0  0  0  0
   -2.0920    0.4510   -4.9420 C   0  0  0  0  0  3  0  0  0  0  0  0
   -0.4320   -2.4130   -6.4720 O   0  0  0  0  0  0  0  0  0  0  0  0
   -1.3100   -2.7210   -7.5530 C   0  0  0  0  0  1  0  0  0  0  0  0
   -2.5670    3.4300   -0.9060 O   0  0  0  0  0  0  0  0  0  0  0  0
   -2.6500    4.3940    0.1370 C   0  0  2  0  0  3  0  0  0  0  0  0
   -2.7710    5.8130   -0.3880 C   0  0  0  0  0  2  0  0  0  0  0  0
   -4.1610    6.3720   -0.4880 C   0  0  0  0  0  1  0  0  0  0  0  0
   -1.3950    4.3100    0.9440 C   0  0  0  0  0  2  0  0  0  0  0  0
   -1.6050    4.2420    2.4170 C   0  0  0  0  0  3  0  0  0  0  0  0
   -1.8160    5.5320    4.6080 C   0  0  0  0  0  1  0  0  0  0  0  0
   -1.3060    5.4790    3.2100 C   0  0  0  0  0  3  0  0  0  0  0  0
  1  2  2  0  0  0  0
  1 13  1  0  0  0  0
  3  1  1  0  0  0  0
  4  3  2  0  0  0  0
  5  6  1  0  0  0  0
  5  4  1  0  0  0  0
  7  6  2  0  0  0  0
  8  7  1  0  0  0  0
  9  8  2  0  0  0  0
  9 10  1  0  0  0  0
 10  5  2  0  0  0  0
 11  8  1  0  0  0  0
 12 11  1  0  0  0  0
 13 14  1  0  0  0  0
 14 15  1  6  0  0  0
 14 17  1  0  0  0  0
 16 15  1  0  0  0  0
 17 18  1  0  0  0  0
 18 20  2  0  0  0  0
 20 19  1  0  0  0  0
M  END
>  <MODEL>
7

>  <REMARK>
 VINA RESULT:      -4.5      1.804      2.332
  Name = shuffle_control_esm0_ligand
  12 active torsions:
  status: ('A' for Active; 'I' for Inactive)
    1  A    between atoms: C_1  and  C_2
    2  A    between atoms: C_2  and  C_3
    3  A    between atoms: C_3  and  C_4
    4  A    between atoms: C_4  and  C_5
    5  A    between atoms: C_5  and  C_6
    6  A    between atoms: C_5  and  O_8
    7  A    between atoms: C_6  and  C_7
    8  A    between atoms: O_8  and  C_9
    9  A    between atoms: C_9  and  C_11
   10  A    between atoms: C_12  and  C_13
   11  A    between atoms: C_16  and  O_17
   12  A    between atoms: O_17  and  C_18
                            x       y       z     vdW  Elec       q    Type
                         _______ _______ _______ _____ _____    ______ ____

>  <TORSDO>
F 9

$$$$
shuffle_control_esm0_ligand
 OpenBabel10092621113D

 20 20  0  0  1  0  0  0  0  0999 V2000
   -0.6110    3.2560   -1.8980 C   0  0  0  0  0  0  0  0  0  0  0  0
    0.1540    4.1640   -1.8150 O   0  0  0  0  0  0  0  0  0  0  0  0
   -0.5390    2.2000   -2.9530 C   0  0  0  0  0  3  0  0  0  0  0  0
   -1.2810    1.1090   -2.8720 C   0  0  0  0  0  3  0  0  0  0  0  0
   -1.1650   -0.0380   -3.8210 C   0  0  0  0  0  0  0  0  0  0  0  0
   -1.8490    0.0250   -5.0090 C   0  0  0  0  0  3  0  0  0  0  0  0
   -1.8000   -1.0240   -5.9150 C   0  0  0  0  0  3  0  0  0  0  0  0
   -1.0490   -2.1510   -5.6420 C   0  0  0  0  0  0  0  0  0  0  0  0
   -0.3450   -2.2130   -4.4380 C   0  0  0  0  0  3  0  0  0  0  0  0
   -0.3960   -1.1500   -3.5300 C   0  0  0  0  0  3  0  0  0  0  0  0
   -0.9830   -3.1980   -6.4910 O   0  0  0  0  0  0  0  0  0  0  0  0
   -2.1890   -3.8250   -6.9250 C   0  0  0  0  0  1  0  0  0  0  0  0
   -1.6400    3.1080   -1.0270 O   0  0  0  0  0  0  0  0  0  0  0  0
   -2.2820    4.2150   -0.4040 C   0  0  2  0  0  3  0  0  0  0  0  0
   -2.1200    4.2100    1.1050 C   0  0  0  0  0  2  0  0  0  0  0  0
   -0.8990    4.8960    1.6470 C   0  0  0  0  0  1  0  0  0  0  0  0
   -3.7430    4.1300   -0.7080 C   0  0  0  0  0  2  0  0  0  0  0  0
   -4.2600    2.7470   -0.9010 C   0  0  0  0  0  2  0  0  0  0  0  0
   -4.3120    3.1810   -3.4140 C   0  0  0  0  0  1  0  0  0  0  0  0
   -4.8190    2.4050   -2.2490 C   0  0  0  0  0  2  0  0  0  0  0  0
  1  2  2  0  0  0  0
  1 13  1  0  0  0  0
  3  4  2  0  0  0  0
  3  1  1  0  0  0  0
  5 10  1  0  0  0  0
  5  4  1  0  0  0  0
  6  5  2  0  0  0  0
  7  8  2  0  0  0  0
  7  6  1  0  0  0  0
  8  9  1  0  0  0  0
  9 10  2  0  0  0  0
 11  8  1  0  0  0  0
 12 11  1  0  0  0  0
 13 14  1  0  0  0  0
 14 17  1  1  0  0  0
 14 15  1  0  0  0  0
 15 16  1  0  0  0  0
 18 17  1  0  0  0  0
 19 20  1  0  0  0  0
 20 18  1  0  0  0  0
M  END
>  <MODEL>
8

>  <REMARK>
 VINA RESULT:      -4.5      1.992      3.784
  Name = shuffle_control_esm0_ligand
  12 active torsions:
  status: ('A' for Active; 'I' for Inactive)
    1  A    between atoms: C_1  and  C_2
    2  A    between atoms: C_2  and  C_3
    3  A    between atoms: C_3  and  C_4
    4  A    between atoms: C_4  and  C_5
    5  A    between atoms: C_5  and  C_6
    6  A    between atoms: C_5  and  O_8
    7  A    between atoms: C_6  and  C_7
    8  A    between atoms: O_8  and  C_9
    9  A    between atoms: C_9  and  C_11
   10  A    between atoms: C_12  and  C_13
   11  A    between atoms: C_16  and  O_17
   12  A    between atoms: O_17  and  C_18
                            x       y       z     vdW  Elec       q    Type
                         _______ _______ _______ _____ _____    ______ ____

>  <TORSDO>
F 9

$$$$
shuffle_control_esm0_ligand
 OpenBabel10092621113D

 20 20  0  0  1  0  0  0  0  0999 V2000
   -4.2430    1.9810   -1.9290 C   0  0  0  0  0  0  0  0  0  0  0  0
   -5.4110    2.0240   -2.1550 O   0  0  0  0  0  0  0  0  0  0  0  0
   -3.5770    2.7490   -0.8340 C   0  0  0  0  0  3  0  0  0  0  0  0
   -3.6380    4.0690   -0.7960 C   0  0  0  0  0  3  0  0  0  0  0  0
   -2.8900    4.9000    0.1950 C   0  0  0  0  0  0  0  0  0  0  0  0
   -2.2190    4.2620    1.2070 C   0  0  0  0  0  3  0  0  0  0  0  0
   -1.5330    4.9840    2.1720 C   0  0  0  0  0  3  0  0  0  0  0  0
   -1.5040    6.3650    2.1240 C   0  0  0  0  0  0  0  0  0  0  0  0
   -2.1790    7.0150    1.0900 C   0  0  0  0  0  3  0  0  0  0  0  0
   -2.8660    6.2800    0.1190 C   0  0  0  0  0  3  0  0  0  0  0  0
   -0.8580    7.1060    3.0490 O   0  0  0  0  0  0  0  0  0  0  0  0
   -1.4630    8.3030    3.5350 C   0  0  0  0  0  1  0  0  0  0  0  0
   -3.4000    1.2210   -2.6710 O   0  0  0  0  0  0  0  0  0  0  0  0
   -2.3680    1.7820   -3.4750 C   0  0  2  0  0  3  0  0  0  0  0  0
   -2.5960    1.5570   -4.9580 C   0  0  0  0  0  2  0  0  0  0  0  0
   -2.5190    2.7720   -5.8370 C   0  0  0  0  0  1  0  0  0  0  0  0
   -1.0830    1.1180   -3.1030 C   0  0  0  0  0  2  0  0  0  0  0  0
    0.0400    2.0530   -2.8120 C   0  0  0  0  0  2  0  0  0  0  0  0
    0.4740    4.0640   -1.3030 C   0  0  0  0  0  1  0  0  0  0  0  0
   -0.3180    3.4500   -2.4050 C   0  0  0  0  0  2  0  0  0  0  0  0
  1  3  1  0  0  0  0
  2  1  2  0  0  0  0
  3  4  2  0  0  0  0
  4  5  1  0  0  0  0
  5  6  1  0  0  0  0
  6  7  2  0  0  0  0
  8  7  1  0  0  0  0
  8 11  1  0  0  0  0
  9  8  2  0  0  0  0
 10  5  2  0  0  0  0
 10  9  1  0  0  0  0
 11 12  1  0  0  0  0
 13  1  1  0  0  0  0
 14 15  1  6  0  0  0
 14 17  1  0  0  0  0
 14 13  1  0  0  0  0
 16 15  1  0  0  0  0
 17 18  1  0  0  0  0
 18 20  1  0  0  0  0
 20 19  1  0  0  0  0
M  END
>  <MODEL>
9

>  <REMARK>
 VINA RESULT:      -4.5      3.037      7.589
  Name = shuffle_control_esm0_ligand
  12 active torsions:
  status: ('A' for Active; 'I' for Inactive)
    1  A    between atoms: C_1  and  C_2
    2  A    between atoms: C_2  and  C_3
    3  A    between atoms: C_3  and  C_4
    4  A    between atoms: C_4  and  C_5
    5  A    between atoms: C_5  and  C_6
    6  A    between atoms: C_5  and  O_8
    7  A    between atoms: C_6  and  C_7
    8  A    between atoms: O_8  and  C_9
    9  A    between atoms: C_9  and  C_11
   10  A    between atoms: C_12  and  C_13
   11  A    between atoms: C_16  and  O_17
   12  A    between atoms: O_17  and  C_18
                            x       y       z     vdW  Elec       q    Type
                         _______ _______ _______ _____ _____    ______ ____

>  <TORSDO>
F 9

$$$$
