ox2_esm1_f8_ligand
     RDKit          3D

 29 30  0  0  0  0  0  0  0  0999 V2000
    2.3102   -2.1228   -1.4515 C   0  0  0  0  0  0  0  0  0  0  0  0
    3.0324   -1.6050   -0.3111 O   0  0  0  0  0  0  0  0  0  0  0  0
    2.3576   -0.9080    0.6480 C   0  0  0  0  0  0  0  0  0  0  0  0
    0.9889   -0.6617    0.5707 C   0  0  0  0  0  0  0  0  0  0  0  0
    0.3532    0.0584    1.5662 C   0  0  0  0  0  0  0  0  0  0  0  0
    1.0684    0.5267    2.6540 C   0  0  0  0  0  0  0  0  0  0  0  0
    0.3933    1.2973    3.7433 C   0  0  0  0  0  0  0  0  0  0  0  0
    1.0622    1.9187    4.5414 O   0  0  0  0  0  0  0  0  0  0  0  0
   -1.0795    1.3290    3.8610 C   0  0  0  0  0  0  0  0  0  0  0  0
   -1.7378    2.5505    3.9646 C   0  0  0  0  0  0  0  0  0  0  0  0
   -3.1258    2.5780    4.0664 C   0  0  0  0  0  0  0  0  0  0  0  0
   -3.8631    1.4026    4.1020 C   0  0  0  0  0  0  0  0  0  0  0  0
   -3.1962    0.1889    4.0405 C   0  0  0  0  0  0  0  0  0  0  0  0
   -1.8070    0.1502    3.9167 C   0  0  0  0  0  0  0  0  0  0  0  0
    2.4470    0.2851    2.7379 C   0  0  0  0  0  0  0  0  0  0  0  0
    3.1465    0.7607    3.8131 O   0  0  0  0  0  0  0  0  0  0  0  0
    3.0776   -0.4328    1.7223 C   0  0  0  0  0  0  0  0  0  0  0  0
    2.2609   -1.3521   -2.2348 H   0  0  0  0  0  0  0  0  0  0  0  0
    2.8296   -3.0101   -1.8423 H   0  0  0  0  0  0  0  0  0  0  0  0
    1.2909   -2.3998   -1.1449 H   0  0  0  0  0  0  0  0  0  0  0  0
    0.4113   -1.0411   -0.2852 H   0  0  0  0  0  0  0  0  0  0  0  0
   -0.7257    0.2596    1.4925 H   0  0  0  0  0  0  0  0  0  0  0  0
   -1.1645    3.4892    3.9660 H   0  0  0  0  0  0  0  0  0  0  0  0
   -3.6460    3.5459    4.1192 H   0  0  0  0  0  0  0  0  0  0  0  0
   -4.9600    1.4336    4.1781 H   0  0  0  0  0  0  0  0  0  0  0  0
   -3.7663   -0.7506    4.0896 H   0  0  0  0  0  0  0  0  0  0  0  0
   -1.2876   -0.8179    3.8630 H   0  0  0  0  0  0  0  0  0  0  0  0
    4.1202    0.5959    3.8822 H   0  0  0  0  0  0  0  0  0  0  0  0
    4.1599   -0.6216    1.7794 H   0  0  0  0  0  0  0  0  0  0  0  0
  2  1  1  0
  3  2  1  0
  4  3  1  0
  5  4  2  0
  6  5  1  0
  7  6  1  0
  8  7  2  0
  9  7  1  0
 10  9  2  0
 11 10  1  0
 12 11  2  0
 13 12  1  0
 14 13  2  0
 14  9  1  0
 15  6  2  0
 16 15  1  0
 17 15  1  0
 17  3  2  0
  1 18  1  0
  1 19  1  0
  1 20  1  0
  4 21  1  0
  5 22  1  0
 10 23  1  0
 11 24  1  0
 12 25  1  0
 13 26  1  0
 14 27  1  0
 16 28  1  0
 17 29  1  0
M  END
$$$$
