ox2_esm1_f8_ligand
 OpenBabel10092621203D

 18 19  0  0  0  0  0  0  0  0999 V2000
    7.1070    5.1810   -0.2280 C   0  0  0  0  0  0  0  0  0  0  0  0
    6.6040    4.5560   -1.3670 C   0  0  0  0  0  3  0  0  0  0  0  0
    5.8140    3.4270   -1.2510 C   0  0  0  0  0  3  0  0  0  0  0  0
    5.5290    2.8990   -0.0040 C   0  0  0  0  0  0  0  0  0  0  0  0
    6.0300    3.5240    1.1470 C   0  0  0  0  0  0  0  0  0  0  0  0
    6.8160    4.6680    1.0170 C   0  0  0  0  0  3  0  0  0  0  0  0
    8.7240    6.6440    0.8360 C   0  0  0  0  0  1  0  0  0  0  0  0
    7.8840    6.3000   -0.2900 O   0  0  0  0  0  0  0  0  0  0  0  0
    4.6850    1.6730    0.1370 C   0  0  0  0  0  0  0  0  0  0  0  0
    3.8510    1.6170    1.0160 O   0  0  0  0  0  0  0  0  0  0  0  0
    4.8360    0.5280   -0.7840 C   0  0  0  0  0  0  0  0  0  0  0  0
    3.7410    0.0820   -1.5170 C   0  0  0  0  0  3  0  0  0  0  0  0
    3.8880   -0.9910   -2.3920 C   0  0  0  0  0  3  0  0  0  0  0  0
    5.1030   -1.6480   -2.5170 C   0  0  0  0  0  3  0  0  0  0  0  0
    6.1790   -1.2250   -1.7510 C   0  0  0  0  0  3  0  0  0  0  0  0
    6.0480   -0.1370   -0.8880 C   0  0  0  0  0  3  0  0  0  0  0  0
    5.7340    3.0000    2.3770 O   0  0  0  0  0  0  0  0  0  0  0  0
    6.4610    2.6740    2.9630 H   0  0  0  0  0  0  0  0  0  0  0  0
  1  6  1  0  0  0  0
  2  3  1  0  0  0  0
  2  1  2  0  0  0  0
  3  4  2  0  0  0  0
  4  9  1  0  0  0  0
  4  5  1  0  0  0  0
  5 17  1  0  0  0  0
  6  5  2  0  0  0  0
  8  1  1  0  0  0  0
  8  7  1  0  0  0  0
  9 10  2  0  0  0  0
 11  9  1  0  0  0  0
 12 11  2  0  0  0  0
 13 12  1  0  0  0  0
 14 13  2  0  0  0  0
 14 15  1  0  0  0  0
 15 16  2  0  0  0  0
 16 11  1  0  0  0  0
 17 18  1  0  0  0  0
M  END
>  <MODEL>
1

>  <REMARK>
 VINA RESULT:      -5.2      0.000      0.000
  Name = ox2_esm1_f8_ligand
  5 active torsions:
  status: ('A' for Active; 'I' for Inactive)
    1  A    between atoms: C_1  and  O_2
    2  A    between atoms: O_2  and  C_3
    3  A    between atoms: C_6  and  C_7
    4  A    between atoms: C_7  and  C_9
    5  A    between atoms: C_15  and  O_16
                            x       y       z     vdW  Elec       q    Type
                         _______ _______ _______ _____ _____    ______ ____

>  <TORSDO>
F 4

$$$$
ox2_esm1_f8_ligand
 OpenBabel10092621203D

 18 19  0  0  0  0  0  0  0  0999 V2000
    8.0750   -2.7680   -2.6780 C   0  0  0  0  0  0  0  0  0  0  0  0
    6.8220   -2.7190   -2.0700 C   0  0  0  0  0  3  0  0  0  0  0  0
    6.1610   -1.5130   -1.9300 C   0  0  0  0  0  3  0  0  0  0  0  0
    6.7450   -0.3410   -2.3790 C   0  0  0  0  0  0  0  0  0  0  0  0
    8.0050   -0.3810   -2.9940 C   0  0  0  0  0  0  0  0  0  0  0  0
    8.6560   -1.6070   -3.1380 C   0  0  0  0  0  3  0  0  0  0  0  0
   10.1440   -3.8880   -3.2710 C   0  0  0  0  0  1  0  0  0  0  0  0
    8.7620   -3.9330   -2.8470 O   0  0  0  0  0  0  0  0  0  0  0  0
    6.0480    0.9730   -2.2250 C   0  0  0  0  0  0  0  0  0  0  0  0
    5.7090    1.5910   -3.2120 O   0  0  0  0  0  0  0  0  0  0  0  0
    5.7490    1.5310   -0.8910 C   0  0  0  0  0  0  0  0  0  0  0  0
    6.7520    2.1690   -0.1670 C   0  0  0  0  0  3  0  0  0  0  0  0
    6.4650    2.7020    1.0860 C   0  0  0  0  0  3  0  0  0  0  0  0
    5.2010    2.5760    1.6430 C   0  0  0  0  0  3  0  0  0  0  0  0
    4.2180    1.9020    0.9340 C   0  0  0  0  0  3  0  0  0  0  0  0
    4.4890    1.3820   -0.3320 C   0  0  0  0  0  3  0  0  0  0  0  0
    8.5700    0.7810   -3.4430 O   0  0  0  0  0  0  0  0  0  0  0  0
    9.4150    0.7550   -3.9560 H   0  0  0  0  0  0  0  0  0  0  0  0
  1  2  1  0  0  0  0
  2  3  2  0  0  0  0
  4  9  1  0  0  0  0
  4  3  1  0  0  0  0
  5  4  2  0  0  0  0
  6  5  1  0  0  0  0
  6  1  2  0  0  0  0
  7  8  1  0  0  0  0
  8  1  1  0  0  0  0
  9 11  1  0  0  0  0
 10  9  2  0  0  0  0
 11 16  2  0  0  0  0
 11 12  1  0  0  0  0
 12 13  2  0  0  0  0
 13 14  1  0  0  0  0
 15 14  2  0  0  0  0
 16 15  1  0  0  0  0
 17  5  1  0  0  0  0
 18 17  1  0  0  0  0
M  END
>  <MODEL>
2

>  <REMARK>
 VINA RESULT:      -5.2      3.370      6.375
  Name = ox2_esm1_f8_ligand
  5 active torsions:
  status: ('A' for Active; 'I' for Inactive)
    1  A    between atoms: C_1  and  O_2
    2  A    between atoms: O_2  and  C_3
    3  A    between atoms: C_6  and  C_7
    4  A    between atoms: C_7  and  C_9
    5  A    between atoms: C_15  and  O_16
                            x       y       z     vdW  Elec       q    Type
                         _______ _______ _______ _____ _____    ______ ____

>  <TORSDO>
F 4

$$$$
ox2_esm1_f8_ligand
 OpenBabel10092621203D

 18 19  0  0  0  0  0  0  0  0999 V2000
    7.4990   -2.7300   -3.6110 C   0  0  0  0  0  0  0  0  0  0  0  0
    7.1860   -2.9320   -2.2690 C   0  0  0  0  0  3  0  0  0  0  0  0
    6.2160   -2.1600   -1.6550 C   0  0  0  0  0  3  0  0  0  0  0  0
    5.5580   -1.1710   -2.3650 C   0  0  0  0  0  0  0  0  0  0  0  0
    5.8660   -0.9630   -3.7170 C   0  0  0  0  0  0  0  0  0  0  0  0
    6.8390   -1.7550   -4.3270 C   0  0  0  0  0  3  0  0  0  0  0  0
    9.6600   -3.8330   -3.5750 C   0  0  0  0  0  1  0  0  0  0  0  0
    8.4410   -3.4690   -4.2630 O   0  0  0  0  0  0  0  0  0  0  0  0
    4.5150   -0.3220   -1.7130 C   0  0  0  0  0  0  0  0  0  0  0  0
    3.3470   -0.4810   -1.9980 O   0  0  0  0  0  0  0  0  0  0  0  0
    4.8760    0.7040   -0.7120 C   0  0  0  0  0  0  0  0  0  0  0  0
    6.1380    1.2890   -0.7460 C   0  0  0  0  0  3  0  0  0  0  0  0
    6.4720    2.2620    0.1910 C   0  0  0  0  0  3  0  0  0  0  0  0
    5.5780    2.6320    1.1850 C   0  0  0  0  0  3  0  0  0  0  0  0
    4.3380    2.0140    1.2380 C   0  0  0  0  0  3  0  0  0  0  0  0
    3.9850    1.0540    0.2910 C   0  0  0  0  0  3  0  0  0  0  0  0
    5.2030    0.0120   -4.4130 O   0  0  0  0  0  0  0  0  0  0  0  0
    4.5160    0.5610   -3.9610 H   0  0  0  0  0  0  0  0  0  0  0  0
  1  2  1  0  0  0  0
  2  3  2  0  0  0  0
  4  9  1  0  0  0  0
  4  3  1  0  0  0  0
  5  4  2  0  0  0  0
  6  5  1  0  0  0  0
  6  1  2  0  0  0  0
  8  1  1  0  0  0  0
  8  7  1  0  0  0  0
  9 11  1  0  0  0  0
 10  9  2  0  0  0  0
 11 16  1  0  0  0  0
 12 11  2  0  0  0  0
 12 13  1  0  0  0  0
 13 14  2  0  0  0  0
 14 15  1  0  0  0  0
 16 15  2  0  0  0  0
 17 18  1  0  0  0  0
 17  5  1  0  0  0  0
M  END
>  <MODEL>
3

>  <REMARK>
 VINA RESULT:      -5.2      3.201      6.466
  Name = ox2_esm1_f8_ligand
  5 active torsions:
  status: ('A' for Active; 'I' for Inactive)
    1  A    between atoms: C_1  and  O_2
    2  A    between atoms: O_2  and  C_3
    3  A    between atoms: C_6  and  C_7
    4  A    between atoms: C_7  and  C_9
    5  A    between atoms: C_15  and  O_16
                            x       y       z     vdW  Elec       q    Type
                         _______ _______ _______ _____ _____    ______ ____

>  <TORSDO>
F 4

$$$$
ox2_esm1_f8_ligand
 OpenBabel10092621203D

 18 19  0  0  0  0  0  0  0  0999 V2000
    6.3940    3.5170    0.9450 C   0  0  0  0  0  0  0  0  0  0  0  0
    6.8160    3.2420   -0.3540 C   0  0  0  0  0  3  0  0  0  0  0  0
    6.2400    2.2090   -1.0710 C   0  0  0  0  0  3  0  0  0  0  0  0
    5.2500    1.4300   -0.4990 C   0  0  0  0  0  0  0  0  0  0  0  0
    4.8180    1.7010    0.8080 C   0  0  0  0  0  0  0  0  0  0  0  0
    5.3990    2.7530    1.5160 C   0  0  0  0  0  3  0  0  0  0  0  0
    6.8810    5.8820    1.1810 C   0  0  0  0  0  1  0  0  0  0  0  0
    6.9240    4.5290    1.6890 O   0  0  0  0  0  0  0  0  0  0  0  0
    4.6260    0.3030   -1.2560 C   0  0  0  0  0  0  0  0  0  0  0  0
    3.4250    0.1370   -1.2030 O   0  0  0  0  0  0  0  0  0  0  0  0
    5.4410   -0.6090   -2.0850 C   0  0  0  0  0  0  0  0  0  0  0  0
    5.5060   -0.4200   -3.4610 C   0  0  0  0  0  3  0  0  0  0  0  0
    6.2830   -1.2750   -4.2390 C   0  0  0  0  0  3  0  0  0  0  0  0
    6.9650   -2.3380   -3.6660 C   0  0  0  0  0  3  0  0  0  0  0  0
    6.8610   -2.5450   -2.2980 C   0  0  0  0  0  3  0  0  0  0  0  0
    6.1030   -1.6820   -1.5070 C   0  0  0  0  0  3  0  0  0  0  0  0
    3.8320    0.9310    1.3610 O   0  0  0  0  0  0  0  0  0  0  0  0
    3.1560    1.3430    1.9550 H   0  0  0  0  0  0  0  0  0  0  0  0
  1  6  1  0  0  0  0
  1  8  1  0  0  0  0
  2  1  2  0  0  0  0
  3  4  2  0  0  0  0
  3  2  1  0  0  0  0
  4  5  1  0  0  0  0
  5 17  1  0  0  0  0
  5  6  2  0  0  0  0
  7  8  1  0  0  0  0
  9 10  2  0  0  0  0
  9  4  1  0  0  0  0
 11 16  1  0  0  0  0
 11  9  1  0  0  0  0
 12 11  2  0  0  0  0
 13 14  2  0  0  0  0
 13 12  1  0  0  0  0
 14 15  1  0  0  0  0
 15 16  2  0  0  0  0
 17 18  1  0  0  0  0
M  END
>  <MODEL>
4

>  <REMARK>
 VINA RESULT:      -4.9      1.459      2.234
  Name = ox2_esm1_f8_ligand
  5 active torsions:
  status: ('A' for Active; 'I' for Inactive)
    1  A    between atoms: C_1  and  O_2
    2  A    between atoms: O_2  and  C_3
    3  A    between atoms: C_6  and  C_7
    4  A    between atoms: C_7  and  C_9
    5  A    between atoms: C_15  and  O_16
                            x       y       z     vdW  Elec       q    Type
                         _______ _______ _______ _____ _____    ______ ____

>  <TORSDO>
F 4

$$$$
ox2_esm1_f8_ligand
 OpenBabel10092621203D

 18 19  0  0  0  0  0  0  0  0999 V2000
    2.0780    1.0070    6.7830 C   0  0  0  0  0  0  0  0  0  0  0  0
    1.0010    0.1570    7.0230 C   0  0  0  0  0  3  0  0  0  0  0  0
    0.7530   -0.9100    6.1780 C   0  0  0  0  0  3  0  0  0  0  0  0
    1.5640   -1.1330    5.0790 C   0  0  0  0  0  0  0  0  0  0  0  0
    2.6520   -0.2830    4.8320 C   0  0  0  0  0  0  0  0  0  0  0  0
    2.8970    0.7830    5.6980 C   0  0  0  0  0  3  0  0  0  0  0  0
    2.6420    1.8380    8.9920 C   0  0  0  0  0  1  0  0  0  0  0  0
    2.3690    2.0670    7.5900 O   0  0  0  0  0  0  0  0  0  0  0  0
    1.3020   -2.2750    4.1510 C   0  0  0  0  0  0  0  0  0  0  0  0
    0.8150   -2.0620    3.0600 O   0  0  0  0  0  0  0  0  0  0  0  0
    1.6380   -3.6630    4.5280 C   0  0  0  0  0  0  0  0  0  0  0  0
    2.7530   -3.9130    5.3220 C   0  0  0  0  0  3  0  0  0  0  0  0
    3.0630   -5.2210    5.6850 C   0  0  0  0  0  3  0  0  0  0  0  0
    2.2960   -6.2860    5.2360 C   0  0  0  0  0  3  0  0  0  0  0  0
    1.2110   -6.0330    4.4100 C   0  0  0  0  0  3  0  0  0  0  0  0
    0.8800   -4.7240    4.0580 C   0  0  0  0  0  3  0  0  0  0  0  0
    3.4530   -0.5180    3.7480 O   0  0  0  0  0  0  0  0  0  0  0  0
    3.5930    0.1920    3.0730 H   0  0  0  0  0  0  0  0  0  0  0  0
  1  2  1  0  0  0  0
  1  8  1  0  0  0  0
  3  2  2  0  0  0  0
  4  3  1  0  0  0  0
  5  4  2  0  0  0  0
  5  6  1  0  0  0  0
  6  1  2  0  0  0  0
  8  7  1  0  0  0  0
  9 11  1  0  0  0  0
  9  4  1  0  0  0  0
 10  9  2  0  0  0  0
 11 12  1  0  0  0  0
 12 13  2  0  0  0  0
 14 13  1  0  0  0  0
 15 14  2  0  0  0  0
 16 15  1  0  0  0  0
 16 11  2  0  0  0  0
 17  5  1  0  0  0  0
 18 17  1  0  0  0  0
M  END
>  <MODEL>
5

>  <REMARK>
 VINA RESULT:      -4.9      7.282      8.540
  Name = ox2_esm1_f8_ligand
  5 active torsions:
  status: ('A' for Active; 'I' for Inactive)
    1  A    between atoms: C_1  and  O_2
    2  A    between atoms: O_2  and  C_3
    3  A    between atoms: C_6  and  C_7
    4  A    between atoms: C_7  and  C_9
    5  A    between atoms: C_15  and  O_16
                            x       y       z     vdW  Elec       q    Type
                         _______ _______ _______ _____ _____    ______ ____

>  <TORSDO>
F 4

$$$$
ox2_esm1_f8_ligand
 OpenBabel10092621203D

 18 19  0  0  0  0  0  0  0  0999 V2000
    6.3180    3.7110    0.3580 C   0  0  0  0  0  0  0  0  0  0  0  0
    6.0550    2.5720    1.1150 C   0  0  0  0  0  3  0  0  0  0  0  0
    5.6920    1.3910    0.4940 C   0  0  0  0  0  3  0  0  0  0  0  0
    5.5720    1.3340   -0.8830 C   0  0  0  0  0  0  0  0  0  0  0  0
    5.8370    2.4770   -1.6530 C   0  0  0  0  0  0  0  0  0  0  0  0
    6.2130    3.6590   -1.0140 C   0  0  0  0  0  3  0  0  0  0  0  0
    7.5990    4.8960    2.0450 C   0  0  0  0  0  1  0  0  0  0  0  0
    6.6880    4.8970    0.9220 O   0  0  0  0  0  0  0  0  0  0  0  0
    5.1700    0.0680   -1.5680 C   0  0  0  0  0  0  0  0  0  0  0  0
    4.0070   -0.1120   -1.8610 O   0  0  0  0  0  0  0  0  0  0  0  0
    6.1650   -0.9680   -1.9110 C   0  0  0  0  0  0  0  0  0  0  0  0
    7.2850   -0.6290   -2.6640 C   0  0  0  0  0  3  0  0  0  0  0  0
    8.2260   -1.6050   -2.9770 C   0  0  0  0  0  3  0  0  0  0  0  0
    8.0470   -2.9230   -2.5820 C   0  0  0  0  0  3  0  0  0  0  0  0
    6.9080   -3.2610   -1.8680 C   0  0  0  0  0  3  0  0  0  0  0  0
    5.9690   -2.2870   -1.5300 C   0  0  0  0  0  3  0  0  0  0  0  0
    5.7240    2.4080   -3.0140 O   0  0  0  0  0  0  0  0  0  0  0  0
    5.1700    3.0690   -3.4990 H   0  0  0  0  0  0  0  0  0  0  0  0
  1  8  1  0  0  0  0
  1  2  1  0  0  0  0
  3  2  2  0  0  0  0
  4  3  1  0  0  0  0
  5  6  1  0  0  0  0
  5  4  2  0  0  0  0
  6  1  2  0  0  0  0
  8  7  1  0  0  0  0
  9  4  1  0  0  0  0
 10  9  2  0  0  0  0
 11  9  1  0  0  0  0
 11 16  1  0  0  0  0
 12 11  2  0  0  0  0
 13 12  1  0  0  0  0
 13 14  2  0  0  0  0
 14 15  1  0  0  0  0
 15 16  2  0  0  0  0
 17  5  1  0  0  0  0
 18 17  1  0  0  0  0
M  END
>  <MODEL>
6

>  <REMARK>
 VINA RESULT:      -4.9      1.969      3.017
  Name = ox2_esm1_f8_ligand
  5 active torsions:
  status: ('A' for Active; 'I' for Inactive)
    1  A    between atoms: C_1  and  O_2
    2  A    between atoms: O_2  and  C_3
    3  A    between atoms: C_6  and  C_7
    4  A    between atoms: C_7  and  C_9
    5  A    between atoms: C_15  and  O_16
                            x       y       z     vdW  Elec       q    Type
                         _______ _______ _______ _____ _____    ______ ____

>  <TORSDO>
F 4

$$$$
ox2_esm1_f8_ligand
 OpenBabel10092621203D

 18 19  0  0  0  0  0  0  0  0999 V2000
    9.0350   -2.3020   -3.0590 C   0  0  0  0  0  0  0  0  0  0  0  0
    8.7890   -0.9330   -3.1270 C   0  0  0  0  0  3  0  0  0  0  0  0
    7.5630   -0.4240   -2.7370 C   0  0  0  0  0  3  0  0  0  0  0  0
    6.5650   -1.2730   -2.2900 C   0  0  0  0  0  0  0  0  0  0  0  0
    6.8060   -2.6530   -2.2170 C   0  0  0  0  0  0  0  0  0  0  0  0
    8.0500   -3.1510   -2.6030 C   0  0  0  0  0  3  0  0  0  0  0  0
   11.3330   -2.8350   -2.4890 C   0  0  0  0  0  1  0  0  0  0  0  0
   10.2290   -2.8510   -3.4240 O   0  0  0  0  0  0  0  0  0  0  0  0
    5.2320   -0.7400   -1.8760 C   0  0  0  0  0  0  0  0  0  0  0  0
    4.2220   -1.2080   -2.3590 O   0  0  0  0  0  0  0  0  0  0  0  0
    5.1150    0.3400   -0.8750 C   0  0  0  0  0  0  0  0  0  0  0  0
    3.8560    0.7720   -0.4680 C   0  0  0  0  0  3  0  0  0  0  0  0
    3.7480    1.7830    0.4830 C   0  0  0  0  0  3  0  0  0  0  0  0
    4.8790    2.3950    1.0060 C   0  0  0  0  0  3  0  0  0  0  0  0
    6.1280    1.9880    0.5640 C   0  0  0  0  0  3  0  0  0  0  0  0
    6.2480    0.9610   -0.3730 C   0  0  0  0  0  3  0  0  0  0  0  0
    5.8160   -3.4830   -1.7650 O   0  0  0  0  0  0  0  0  0  0  0  0
    5.0000   -3.1020   -1.3560 H   0  0  0  0  0  0  0  0  0  0  0  0
  1  6  1  0  0  0  0
  2  1  2  0  0  0  0
  2  3  1  0  0  0  0
  3  4  2  0  0  0  0
  4  5  1  0  0  0  0
  4  9  1  0  0  0  0
  5 17  1  0  0  0  0
  6  5  2  0  0  0  0
  8  1  1  0  0  0  0
  8  7  1  0  0  0  0
  9 11  1  0  0  0  0
 10  9  2  0  0  0  0
 11 12  2  0  0  0  0
 11 16  1  0  0  0  0
 12 13  1  0  0  0  0
 13 14  2  0  0  0  0
 15 14  1  0  0  0  0
 16 15  2  0  0  0  0
 17 18  1  0  0  0  0
M  END
>  <MODEL>
7

>  <REMARK>
 VINA RESULT:      -4.9      3.531      6.110
  Name = ox2_esm1_f8_ligand
  5 active torsions:
  status: ('A' for Active; 'I' for Inactive)
    1  A    between atoms: C_1  and  O_2
    2  A    between atoms: O_2  and  C_3
    3  A    between atoms: C_6  and  C_7
    4  A    between atoms: C_7  and  C_9
    5  A    between atoms: C_15  and  O_16
                            x       y       z     vdW  Elec       q    Type
                         _______ _______ _______ _____ _____    ______ ____

>  <TORSDO>
F 4

$$$$
ox2_esm1_f8_ligand
 OpenBabel10092621203D

 18 19  0  0  0  0  0  0  0  0999 V2000
    7.0790   -1.7390   -5.0810 C   0  0  0  0  0  0  0  0  0  0  0  0
    6.4770   -0.4880   -5.1910 C   0  0  0  0  0  3  0  0  0  0  0  0
    5.5820   -0.0580   -4.2280 C   0  0  0  0  0  3  0  0  0  0  0  0
    5.2660   -0.8720   -3.1550 C   0  0  0  0  0  0  0  0  0  0  0  0
    5.8700   -2.1330   -3.0360 C   0  0  0  0  0  0  0  0  0  0  0  0
    6.7790   -2.5500   -4.0080 C   0  0  0  0  0  3  0  0  0  0  0  0
    7.7640   -3.5040   -6.5990 C   0  0  0  0  0  1  0  0  0  0  0  0
    7.9740   -2.2050   -5.9990 O   0  0  0  0  0  0  0  0  0  0  0  0
    4.2930   -0.4260   -2.1120 C   0  0  0  0  0  0  0  0  0  0  0  0
    3.1590   -0.8590   -2.1250 O   0  0  0  0  0  0  0  0  0  0  0  0
    4.6860    0.5230   -1.0510 C   0  0  0  0  0  0  0  0  0  0  0  0
    6.0240    0.8710   -0.8960 C   0  0  0  0  0  3  0  0  0  0  0  0
    6.3910    1.7740    0.0970 C   0  0  0  0  0  3  0  0  0  0  0  0
    5.4460    2.3070    0.9630 C   0  0  0  0  0  3  0  0  0  0  0  0
    4.1200    1.9230    0.8290 C   0  0  0  0  0  3  0  0  0  0  0  0
    3.7390    1.0360   -0.1780 C   0  0  0  0  0  3  0  0  0  0  0  0
    5.5580   -2.9270   -1.9660 O   0  0  0  0  0  0  0  0  0  0  0  0
    5.7440   -2.6140   -1.0470 H   0  0  0  0  0  0  0  0  0  0  0  0
  1  6  1  0  0  0  0
  2  1  2  0  0  0  0
  2  3  1  0  0  0  0
  3  4  2  0  0  0  0
  4  5  1  0  0  0  0
  4  9  1  0  0  0  0
  5 17  1  0  0  0  0
  6  5  2  0  0  0  0
  7  8  1  0  0  0  0
  8  1  1  0  0  0  0
  9 11  1  0  0  0  0
 10  9  2  0  0  0  0
 11 12  2  0  0  0  0
 11 16  1  0  0  0  0
 12 13  1  0  0  0  0
 13 14  2  0  0  0  0
 15 14  1  0  0  0  0
 16 15  2  0  0  0  0
 17 18  1  0  0  0  0
M  END
>  <MODEL>
8

>  <REMARK>
 VINA RESULT:      -4.9      3.510      6.464
  Name = ox2_esm1_f8_ligand
  5 active torsions:
  status: ('A' for Active; 'I' for Inactive)
    1  A    between atoms: C_1  and  O_2
    2  A    between atoms: O_2  and  C_3
    3  A    between atoms: C_6  and  C_7
    4  A    between atoms: C_7  and  C_9
    5  A    between atoms: C_15  and  O_16
                            x       y       z     vdW  Elec       q    Type
                         _______ _______ _______ _____ _____    ______ ____

>  <TORSDO>
F 4

$$$$
ox2_esm1_f8_ligand
 OpenBabel10092621203D

 18 19  0  0  0  0  0  0  0  0999 V2000
    2.2720   -7.3920    5.5880 C   0  0  0  0  0  0  0  0  0  0  0  0
    1.8960   -6.9140    4.3350 C   0  0  0  0  0  3  0  0  0  0  0  0
    1.3660   -5.6430    4.2040 C   0  0  0  0  0  3  0  0  0  0  0  0
    1.1910   -4.8420    5.3180 C   0  0  0  0  0  0  0  0  0  0  0  0
    1.5690   -5.3150    6.5830 C   0  0  0  0  0  0  0  0  0  0  0  0
    2.1120   -6.5950    6.7000 C   0  0  0  0  0  3  0  0  0  0  0  0
    3.0370   -9.4820    4.6190 C   0  0  0  0  0  1  0  0  0  0  0  0
    2.8070   -8.6340    5.7680 O   0  0  0  0  0  0  0  0  0  0  0  0
    0.6090   -3.4700    5.1940 C   0  0  0  0  0  0  0  0  0  0  0  0
   -0.5360   -3.2710    5.5410 O   0  0  0  0  0  0  0  0  0  0  0  0
    1.4070   -2.3430    4.6700 C   0  0  0  0  0  0  0  0  0  0  0  0
    0.9240   -1.5920    3.6030 C   0  0  0  0  0  3  0  0  0  0  0  0
    1.6730   -0.5240    3.1170 C   0  0  0  0  0  3  0  0  0  0  0  0
    2.9140   -0.2180    3.6560 C   0  0  0  0  0  3  0  0  0  0  0  0
    3.4070   -0.9970    4.6910 C   0  0  0  0  0  3  0  0  0  0  0  0
    2.6560   -2.0570    5.2000 C   0  0  0  0  0  3  0  0  0  0  0  0
    1.4000   -4.5120    7.6780 O   0  0  0  0  0  0  0  0  0  0  0  0
    2.1850   -4.2310    8.2110 H   0  0  0  0  0  0  0  0  0  0  0  0
  1  8  1  0  0  0  0
  1  6  1  0  0  0  0
  2  1  2  0  0  0  0
  3  2  1  0  0  0  0
  3  4  2  0  0  0  0
  4  5  1  0  0  0  0
  5  6  2  0  0  0  0
  5 17  1  0  0  0  0
  7  8  1  0  0  0  0
  9  4  1  0  0  0  0
  9 10  2  0  0  0  0
 11  9  1  0  0  0  0
 11 16  1  0  0  0  0
 12 11  2  0  0  0  0
 13 12  1  0  0  0  0
 13 14  2  0  0  0  0
 14 15  1  0  0  0  0
 15 16  2  0  0  0  0
 17 18  1  0  0  0  0
M  END
>  <MODEL>
9

>  <REMARK>
 VINA RESULT:      -4.8      8.459     10.970
  Name = ox2_esm1_f8_ligand
  5 active torsions:
  status: ('A' for Active; 'I' for Inactive)
    1  A    between atoms: C_1  and  O_2
    2  A    between atoms: O_2  and  C_3
    3  A    between atoms: C_6  and  C_7
    4  A    between atoms: C_7  and  C_9
    5  A    between atoms: C_15  and  O_16
                            x       y       z     vdW  Elec       q    Type
                         _______ _______ _______ _____ _____    ______ ____

>  <TORSDO>
F 4

$$$$
