s2_esm2_control_dockpose6
     RDKit          3D

 20 20  0  0  0  0  0  0  0  0999 V2000
   -4.3500   -0.5850    5.5790 C   0  0  0  0  0  0  0  0  0  0  0  0
   -3.3390   -1.1000    4.5610 C   0  0  0  0  0  0  0  0  0  0  0  0
   -3.7220   -0.6990    3.1680 C   0  0  0  0  0  0  0  0  0  0  0  0
   -4.6820   -1.6660    2.5470 C   0  0  0  0  0  0  0  0  0  0  0  0
   -4.6760   -1.6540    1.0380 C   0  0  2  0  0  0  0  0  0  0  0  0
   -3.9980   -0.3820    0.5340 C   0  0  0  0  0  0  0  0  0  0  0  0
   -4.9120    0.5420   -0.2530 C   0  0  0  0  0  0  0  0  0  0  0  0
   -6.0080   -1.6760    0.5550 O   0  0  0  0  0  0  0  0  0  0  0  0
   -6.3650   -2.5990   -0.3620 C   0  0  0  0  0  0  0  0  0  0  0  0
   -7.4910   -2.6540   -0.7780 O   0  0  0  0  0  0  0  0  0  0  0  0
   -5.2760   -3.5000   -0.8190 C   0  0  0  0  0  0  0  0  0  0  0  0
   -4.9150   -3.4680   -2.1330 C   0  0  0  0  0  0  0  0  0  0  0  0
   -3.8210   -4.2820   -2.6980 C   0  0  0  0  0  0  0  0  0  0  0  0
   -2.6220   -3.6550   -2.9850 C   0  0  0  0  0  0  0  0  0  0  0  0
   -1.5570   -4.3710   -3.5010 C   0  0  0  0  0  0  0  0  0  0  0  0
   -1.6730   -5.7160   -3.7360 C   0  0  0  0  0  0  0  0  0  0  0  0
   -0.5990   -6.3700   -4.2380 O   0  0  0  0  0  0  0  0  0  0  0  0
    0.7080   -6.0380   -3.7880 C   0  0  0  0  0  0  0  0  0  0  0  0
   -2.8630   -6.3450   -3.4490 C   0  0  0  0  0  0  0  0  0  0  0  0
   -3.9340   -5.6260   -2.9330 C   0  0  0  0  0  0  0  0  0  0  0  0
  2  1  1  0
  3  2  1  0
  4  3  1  0
  5  4  1  1
  6  5  1  0
  7  6  1  0
  8  5  1  0
  9  8  1  0
 10  9  2  0
 11  9  1  0
 12 11  2  3
 13 12  1  0
 14 13  1  0
 15 14  2  0
 16 15  1  0
 17 16  1  0
 18 17  1  0
 19 16  2  0
 20 19  1  0
 20 13  2  0
M  END
$$$$
