ox2_esm1_f8_pose0_reference
     RDKit          3D

 17 18  0  0  0  0  0  0  0  0999 V2000
    0.5390    2.0910    3.9060 C   0  0  0  0  0  0  0  0  0  0  0  0
   -0.1880    0.8600    4.1210 O   0  0  0  0  0  0  0  0  0  0  0  0
   -1.5420    0.9020    4.2820 C   0  0  0  0  0  0  0  0  0  0  0  0
   -2.2620    2.0940    4.2580 C   0  0  0  0  0  0  0  0  0  0  0  0
   -3.6340    2.0830    4.4350 C   0  0  0  0  0  0  0  0  0  0  0  0
   -4.3040    0.8870    4.6220 C   0  0  0  0  0  0  0  0  0  0  0  0
   -5.7880    0.8580    4.8040 C   0  0  0  0  0  0  0  0  0  0  0  0
   -6.3210   -0.1470    5.2240 O   0  0  0  0  0  0  0  0  0  0  0  0
   -6.6220    2.0380    4.4940 C   0  0  0  0  0  0  0  0  0  0  0  0
   -7.5250    2.5130    5.4400 C   0  0  0  0  0  0  0  0  0  0  0  0
   -8.3030    3.6300    5.1490 C   0  0  0  0  0  0  0  0  0  0  0  0
   -8.2180    4.2580    3.9140 C   0  0  0  0  0  0  0  0  0  0  0  0
   -7.3460    3.7530    2.9620 C   0  0  0  0  0  0  0  0  0  0  0  0
   -6.5460    2.6470    3.2510 C   0  0  0  0  0  0  0  0  0  0  0  0
   -3.5860   -0.3170    4.6500 C   0  0  0  0  0  0  0  0  0  0  0  0
   -4.2570   -1.4930    4.8450 O   0  0  0  0  0  0  0  0  0  0  0  0
   -2.2020   -0.2910    4.4810 C   0  0  0  0  0  0  0  0  0  0  0  0
  2  1  1  0
  3  2  1  0
  4  3  1  0
  5  4  2  0
  6  5  1  0
  7  6  1  0
  8  7  2  0
  9  7  1  0
 10  9  2  0
 11 10  1  0
 12 11  2  0
 13 12  1  0
 14 13  2  0
 14  9  1  0
 15  6  2  0
 16 15  1  0
 17 15  1  0
 17  3  2  0
M  END
>  <structure>  (1) 
ox2_esm1_f8

>  <pose>  (1) 
0

>  <is_reference>  (1) 
1

>  <rmsd_to_reference_A>  (1) 
0.000

>  <vina_score>  (1) 


$$$$
