ox2_shuffle_esm0_ligand
     RDKit          3D

 29 30  0  0  0  0  0  0  0  0999 V2000
   -6.0040   -3.5600    1.0190 C   0  0  0  0  0  0  0  0  0  0  0  0
   -5.1440   -3.5410   -0.1240 O   0  0  0  0  0  0  0  0  0  0  0  0
   -3.7990   -3.5190    0.0150 C   0  0  0  0  0  0  0  0  0  0  0  0
   -3.1820   -3.0990    1.1870 C   0  0  0  0  0  0  0  0  0  0  0  0
   -1.8120   -3.0760    1.2650 C   0  0  0  0  0  0  0  0  0  0  0  0
   -1.0360   -3.4580    0.1950 C   0  0  0  0  0  0  0  0  0  0  0  0
    0.4510   -3.4320    0.2260 C   0  0  0  0  0  0  0  0  0  0  0  0
    1.0290   -4.2060   -0.4940 O   0  0  0  0  0  0  0  0  0  0  0  0
    1.2710   -2.4920    1.0160 C   0  0  0  0  0  0  0  0  0  0  0  0
    2.6550   -2.5020    0.8470 C   0  0  0  0  0  0  0  0  0  0  0  0
    3.4550   -1.6270    1.5460 C   0  0  0  0  0  0  0  0  0  0  0  0
    2.9000   -0.7260    2.4320 C   0  0  0  0  0  0  0  0  0  0  0  0
    1.5290   -0.7010    2.5970 C   0  0  0  0  0  0  0  0  0  0  0  0
    0.7290   -1.5750    1.8830 C   0  0  0  0  0  0  0  0  0  0  0  0
   -1.6540   -3.8970   -0.9680 C   0  0  0  0  0  0  0  0  0  0  0  0
   -0.8770   -4.2980   -2.0100 O   0  0  0  0  0  0  0  0  0  0  0  0
   -3.0330   -3.9150   -1.0530 C   0  0  0  0  0  0  0  0  0  0  0  0
   -5.3960   -3.5466    1.9356 H   0  0  0  0  0  0  0  0  0  0  0  0
   -6.6585   -2.6761    1.0002 H   0  0  0  0  0  0  0  0  0  0  0  0
   -6.6188   -4.4719    1.0002 H   0  0  0  0  0  0  0  0  0  0  0  0
   -3.7894   -2.7861    2.0491 H   0  0  0  0  0  0  0  0  0  0  0  0
   -1.3274   -2.7475    2.1963 H   0  0  0  0  0  0  0  0  0  0  0  0
    3.1125   -3.2170    0.1474 H   0  0  0  0  0  0  0  0  0  0  0  0
    4.5448   -1.6459    1.3974 H   0  0  0  0  0  0  0  0  0  0  0  0
    3.5417   -0.0362    2.9998 H   0  0  0  0  0  0  0  0  0  0  0  0
    1.0728    0.0146    3.2968 H   0  0  0  0  0  0  0  0  0  0  0  0
   -0.3626   -1.5348    2.0122 H   0  0  0  0  0  0  0  0  0  0  0  0
   -1.2980   -4.6146   -2.8483 H   0  0  0  0  0  0  0  0  0  0  0  0
   -3.5196   -4.2484   -1.9815 H   0  0  0  0  0  0  0  0  0  0  0  0
  2  1  1  0
  3  2  1  0
  4  3  1  0
  5  4  2  0
  6  5  1  0
  7  6  1  0
  8  7  2  0
  9  7  1  0
 10  9  2  0
 11 10  1  0
 12 11  2  0
 13 12  1  0
 14 13  2  0
 14  9  1  0
 15  6  2  0
 16 15  1  0
 17 15  1  0
 17  3  2  0
  1 18  1  0
  1 19  1  0
  1 20  1  0
  4 21  1  0
  5 22  1  0
 10 23  1  0
 11 24  1  0
 12 25  1  0
 13 26  1  0
 14 27  1  0
 16 28  1  0
 17 29  1  0
M  END
$$$$
