bg33_4_pose0_reference
     RDKit          3D

 20 20  0  0  0  0  0  0  0  0999 V2000
   -3.5680    2.7550    7.2090 C   0  0  0  0  0  0  0  0  0  0  0  0
   -3.9670    1.3760    7.6580 C   0  0  0  0  0  0  0  0  0  0  0  0
   -3.1360    0.2640    7.0220 C   0  0  0  0  0  0  0  0  0  0  0  0
   -3.6870   -1.1060    7.3240 C   0  0  0  0  0  0  0  0  0  0  0  0
   -2.5900   -2.2270    7.0140 C   0  0  1  0  0  0  0  0  0  0  0  0
   -3.1520   -3.5370    6.3890 C   0  0  0  0  0  0  0  0  0  0  0  0
   -3.8100   -4.4560    7.4690 C   0  0  0  0  0  0  0  0  0  0  0  0
   -1.7600   -1.7780    5.9970 O   0  0  0  0  0  0  0  0  0  0  0  0
   -0.3360   -2.1230    6.0250 C   0  0  0  0  0  0  0  0  0  0  0  0
    0.0790   -3.0680    6.7620 O   0  0  0  0  0  0  0  0  0  0  0  0
    0.5190   -1.4180    5.0570 C   0  0  0  0  0  0  0  0  0  0  0  0
   -0.0080   -0.2450    4.4210 C   0  0  0  0  0  0  0  0  0  0  0  0
    0.7770    0.4720    3.3340 C   0  0  0  0  0  0  0  0  0  0  0  0
    2.1550    0.5010    3.3080 C   0  0  0  0  0  0  0  0  0  0  0  0
    2.8690    1.1840    2.2640 C   0  0  0  0  0  0  0  0  0  0  0  0
    2.2020    1.8350    1.2110 C   0  0  0  0  0  0  0  0  0  0  0  0
    2.8330    2.4570    0.1520 O   0  0  0  0  0  0  0  0  0  0  0  0
    4.2800    2.4020    0.0770 C   0  0  0  0  0  0  0  0  0  0  0  0
    0.8110    1.7760    1.2520 C   0  0  0  0  0  0  0  0  0  0  0  0
    0.1200    1.1040    2.2690 C   0  0  0  0  0  0  0  0  0  0  0  0
  2  1  1  0
  3  2  1  0
  4  3  1  0
  5  4  1  6
  6  5  1  0
  7  6  1  0
  8  5  1  0
  9  8  1  0
 10  9  2  0
 11  9  1  0
 12 11  2  3
 13 12  1  0
 14 13  1  0
 15 14  2  0
 16 15  1  0
 17 16  1  0
 18 17  1  0
 19 16  2  0
 20 19  1  0
 20 13  2  0
M  END
>  <structure>  (1) 
bg33_4

>  <pose>  (1) 
0

>  <is_reference>  (1) 
1

>  <rmsd_to_reference_A>  (1) 
0.000

>  <vina_score>  (1) 


$$$$
