ox2_shuffle_esm0_ligand
     RDKit          3D

 29 30  0  0  0  0  0  0  0  0999 V2000
    0.3871    4.9111    7.2997 C   0  0  0  0  0  0  0  0  0  0  0  0
   -0.9597    4.5903    7.6598 O   0  0  0  0  0  0  0  0  0  0  0  0
   -2.0054    5.2375    7.0973 C   0  0  0  0  0  0  0  0  0  0  0  0
   -1.8686    6.4807    6.4920 C   0  0  0  0  0  0  0  0  0  0  0  0
   -2.9687    7.1023    5.9564 C   0  0  0  0  0  0  0  0  0  0  0  0
   -4.2115    6.5147    6.0145 C   0  0  0  0  0  0  0  0  0  0  0  0
   -5.4351    7.1579    5.4651 C   0  0  0  0  0  0  0  0  0  0  0  0
   -6.3260    6.4292    5.1089 O   0  0  0  0  0  0  0  0  0  0  0  0
   -5.6699    8.6134    5.3836 C   0  0  0  0  0  0  0  0  0  0  0  0
   -6.9183    9.0700    4.9626 C   0  0  0  0  0  0  0  0  0  0  0  0
   -7.1875   10.4179    4.8943 C   0  0  0  0  0  0  0  0  0  0  0  0
   -6.2225   11.3430    5.2375 C   0  0  0  0  0  0  0  0  0  0  0  0
   -4.9870   10.8997    5.6670 C   0  0  0  0  0  0  0  0  0  0  0  0
   -4.7260    9.5434    5.7447 C   0  0  0  0  0  0  0  0  0  0  0  0
   -4.3428    5.2634    6.6011 C   0  0  0  0  0  0  0  0  0  0  0  0
   -5.5713    4.6799    6.6288 O   0  0  0  0  0  0  0  0  0  0  0  0
   -3.2389    4.6374    7.1477 C   0  0  0  0  0  0  0  0  0  0  0  0
    0.3845    5.7175    6.5516 H   0  0  0  0  0  0  0  0  0  0  0  0
    0.9368    5.2417    8.1934 H   0  0  0  0  0  0  0  0  0  0  0  0
    0.8757    4.0207    6.8773 H   0  0  0  0  0  0  0  0  0  0  0  0
   -0.8821    6.9650    6.4423 H   0  0  0  0  0  0  0  0  0  0  0  0
   -2.8553    8.0843    5.4738 H   0  0  0  0  0  0  0  0  0  0  0  0
   -7.6964    8.3449    4.6819 H   0  0  0  0  0  0  0  0  0  0  0  0
   -8.1792   10.7606    4.5637 H   0  0  0  0  0  0  0  0  0  0  0  0
   -6.4347   12.4202    5.1699 H   0  0  0  0  0  0  0  0  0  0  0  0
   -4.2098   11.6258    5.9475 H   0  0  0  0  0  0  0  0  0  0  0  0
   -3.7431    9.2031    6.1026 H   0  0  0  0  0  0  0  0  0  0  0  0
   -5.6863    3.7878    7.0425 H   0  0  0  0  0  0  0  0  0  0  0  0
   -3.3492    3.6529    7.6259 H   0  0  0  0  0  0  0  0  0  0  0  0
  2  1  1  0
  3  2  1  0
  4  3  1  0
  5  4  2  0
  6  5  1  0
  7  6  1  0
  8  7  2  0
  9  7  1  0
 10  9  2  0
 11 10  1  0
 12 11  2  0
 13 12  1  0
 14 13  2  0
 14  9  1  0
 15  6  2  0
 16 15  1  0
 17 15  1  0
 17  3  2  0
  1 18  1  0
  1 19  1  0
  1 20  1  0
  4 21  1  0
  5 22  1  0
 10 23  1  0
 11 24  1  0
 12 25  1  0
 13 26  1  0
 14 27  1  0
 16 28  1  0
 17 29  1  0
M  END
$$$$
