ox2_shuffle_esm0_ligand
 OpenBabel10092621223D

 18 19  0  0  0  0  0  0  0  0999 V2000
    4.0670    4.6470    6.2360 C   0  0  0  0  0  0  0  0  0  0  0  0
    2.8170    4.1970    6.6470 C   0  0  0  0  0  3  0  0  0  0  0  0
    2.4160    2.9220    6.3370 C   0  0  0  0  0  3  0  0  0  0  0  0
    3.2360    2.0740    5.6290 C   0  0  0  0  0  0  0  0  0  0  0  0
    4.4760    2.5310    5.2020 C   0  0  0  0  0  0  0  0  0  0  0  0
    4.8870    3.8120    5.5180 C   0  0  0  0  0  3  0  0  0  0  0  0
    4.7520    6.8520    5.5030 C   0  0  0  0  0  1  0  0  0  0  0  0
    4.5210    5.8850    6.5320 O   0  0  0  0  0  0  0  0  0  0  0  0
    2.8530    0.6790    5.2860 C   0  0  0  0  0  0  0  0  0  0  0  0
    2.6970    0.4230    4.1190 O   0  0  0  0  0  0  0  0  0  0  0  0
    2.7150   -0.4290    6.2520 C   0  0  0  0  0  0  0  0  0  0  0  0
    3.7370   -0.6470    7.1760 C   0  0  0  0  0  3  0  0  0  0  0  0
    3.6390   -1.6540    8.1090 C   0  0  0  0  0  3  0  0  0  0  0  0
    2.5280   -2.4710    8.1430 C   0  0  0  0  0  3  0  0  0  0  0  0
    1.5050   -2.2550    7.2400 C   0  0  0  0  0  3  0  0  0  0  0  0
    1.6040   -1.2340    6.3120 C   0  0  0  0  0  3  0  0  0  0  0  0
    5.2680    1.6940    4.4790 O   0  0  0  0  0  0  0  0  0  0  0  0
    6.2370    1.8790    4.3960 H   0  0  0  0  0  0  0  0  0  0  0  0
  1  8  1  0  0  0  0
  1  2  1  0  0  0  0
  3  2  2  0  0  0  0
  4  3  1  0  0  0  0
  5  6  1  0  0  0  0
  5  4  2  0  0  0  0
  6  1  2  0  0  0  0
  7  8  1  0  0  0  0
  9  4  1  0  0  0  0
  9 11  1  0  0  0  0
 10  9  2  0  0  0  0
 11 16  2  0  0  0  0
 11 12  1  0  0  0  0
 12 13  2  0  0  0  0
 13 14  1  0  0  0  0
 15 14  2  0  0  0  0
 16 15  1  0  0  0  0
 17  5  1  0  0  0  0
 18 17  1  0  0  0  0
M  END
>  <MODEL>
1

>  <REMARK>
 VINA RESULT:      -5.1      0.000      0.000
  Name = ox2_shuffle_esm0_ligand
  5 active torsions:
  status: ('A' for Active; 'I' for Inactive)
    1  A    between atoms: C_1  and  O_2
    2  A    between atoms: O_2  and  C_3
    3  A    between atoms: C_6  and  C_7
    4  A    between atoms: C_7  and  C_9
    5  A    between atoms: C_15  and  O_16
                            x       y       z     vdW  Elec       q    Type
                         _______ _______ _______ _____ _____    ______ ____

>  <TORSDO>
F 4

$$$$
ox2_shuffle_esm0_ligand
 OpenBabel10092621223D

 18 19  0  0  0  0  0  0  0  0999 V2000
    4.6540    4.0370    5.7650 C   0  0  0  0  0  0  0  0  0  0  0  0
    5.2840    2.9800    5.1180 C   0  0  0  0  0  3  0  0  0  0  0  0
    4.6260    1.7860    4.9630 C   0  0  0  0  0  3  0  0  0  0  0  0
    3.3430    1.6180    5.4330 C   0  0  0  0  0  0  0  0  0  0  0  0
    2.7220    2.6680    6.0970 C   0  0  0  0  0  0  0  0  0  0  0  0
    3.3790    3.8750    6.2500 C   0  0  0  0  0  3  0  0  0  0  0  0
    4.5770    6.4490    5.5520 C   0  0  0  0  0  1  0  0  0  0  0  0
    5.2470    5.2410    5.9270 O   0  0  0  0  0  0  0  0  0  0  0  0
    2.5840    0.3510    5.2710 C   0  0  0  0  0  0  0  0  0  0  0  0
    2.0480    0.1630    4.2080 O   0  0  0  0  0  0  0  0  0  0  0  0
    2.4900   -0.7220    6.2810 C   0  0  0  0  0  0  0  0  0  0  0  0
    3.5110   -0.8510    7.2210 C   0  0  0  0  0  3  0  0  0  0  0  0
    3.4540   -1.8230    8.1950 C   0  0  0  0  0  3  0  0  0  0  0  0
    2.3840   -2.6920    8.2530 C   0  0  0  0  0  3  0  0  0  0  0  0
    1.3610   -2.5640    7.3330 C   0  0  0  0  0  3  0  0  0  0  0  0
    1.4190   -1.5770    6.3650 C   0  0  0  0  0  3  0  0  0  0  0  0
    1.4650    2.4830    6.5810 O   0  0  0  0  0  0  0  0  0  0  0  0
    0.7530    3.1390    6.3740 H   0  0  0  0  0  0  0  0  0  0  0  0
  1  8  1  0  0  0  0
  1  6  1  0  0  0  0
  2  1  2  0  0  0  0
  3  2  1  0  0  0  0
  3  4  2  0  0  0  0
  4  5  1  0  0  0  0
  5  6  2  0  0  0  0
  5 17  1  0  0  0  0
  7  8  1  0  0  0  0
  9  4  1  0  0  0  0
  9 11  1  0  0  0  0
 10  9  2  0  0  0  0
 11 16  2  0  0  0  0
 11 12  1  0  0  0  0
 12 13  2  0  0  0  0
 13 14  1  0  0  0  0
 15 14  2  0  0  0  0
 16 15  1  0  0  0  0
 18 17  1  0  0  0  0
M  END
>  <MODEL>
2

>  <REMARK>
 VINA RESULT:      -5.0      1.041      1.684
  Name = ox2_shuffle_esm0_ligand
  5 active torsions:
  status: ('A' for Active; 'I' for Inactive)
    1  A    between atoms: C_1  and  O_2
    2  A    between atoms: O_2  and  C_3
    3  A    between atoms: C_6  and  C_7
    4  A    between atoms: C_7  and  C_9
    5  A    between atoms: C_15  and  O_16
                            x       y       z     vdW  Elec       q    Type
                         _______ _______ _______ _____ _____    ______ ____

>  <TORSDO>
F 4

$$$$
ox2_shuffle_esm0_ligand
 OpenBabel10092621223D

 18 19  0  0  0  0  0  0  0  0999 V2000
    3.9830    0.9710    5.2310 C   0  0  0  0  0  0  0  0  0  0  0  0
    2.7550    0.6840    4.6460 C   0  0  0  0  0  3  0  0  0  0  0  0
    1.9130   -0.2220    5.2400 C   0  0  0  0  0  3  0  0  0  0  0  0
    2.2610   -0.8500    6.4130 C   0  0  0  0  0  0  0  0  0  0  0  0
    3.4970   -0.5780    6.9850 C   0  0  0  0  0  0  0  0  0  0  0  0
    4.3460    0.3390    6.3950 C   0  0  0  0  0  3  0  0  0  0  0  0
    4.8490    3.2310    5.1420 C   0  0  0  0  0  1  0  0  0  0  0  0
    4.8420    1.8700    4.7010 O   0  0  0  0  0  0  0  0  0  0  0  0
    1.3740   -1.8240    7.1030 C   0  0  0  0  0  0  0  0  0  0  0  0
    1.8320   -2.9130    7.3380 O   0  0  0  0  0  0  0  0  0  0  0  0
    0.0060   -1.5410    7.5790 C   0  0  0  0  0  0  0  0  0  0  0  0
   -0.9960   -2.4810    7.3420 C   0  0  0  0  0  3  0  0  0  0  0  0
   -2.2810   -2.2690    7.7880 C   0  0  0  0  0  3  0  0  0  0  0  0
   -2.6010   -1.1160    8.4760 C   0  0  0  0  0  3  0  0  0  0  0  0
   -1.6120   -0.1840    8.7270 C   0  0  0  0  0  3  0  0  0  0  0  0
   -0.3200   -0.4090    8.2850 C   0  0  0  0  0  3  0  0  0  0  0  0
    3.8440   -1.2240    8.1310 O   0  0  0  0  0  0  0  0  0  0  0  0
    4.6460   -1.8030    8.1490 H   0  0  0  0  0  0  0  0  0  0  0  0
  1  6  1  0  0  0  0
  2  1  2  0  0  0  0
  2  3  1  0  0  0  0
  3  4  2  0  0  0  0
  4  5  1  0  0  0  0
  4  9  1  0  0  0  0
  5 17  1  0  0  0  0
  6  5  2  0  0  0  0
  8  7  1  0  0  0  0
  8  1  1  0  0  0  0
  9 10  2  0  0  0  0
  9 11  1  0  0  0  0
 11 16  1  0  0  0  0
 12 11  2  0  0  0  0
 12 13  1  0  0  0  0
 13 14  2  0  0  0  0
 14 15  1  0  0  0  0
 16 15  2  0  0  0  0
 17 18  1  0  0  0  0
M  END
>  <MODEL>
3

>  <REMARK>
 VINA RESULT:      -5.0      2.621      4.161
  Name = ox2_shuffle_esm0_ligand
  5 active torsions:
  status: ('A' for Active; 'I' for Inactive)
    1  A    between atoms: C_1  and  O_2
    2  A    between atoms: O_2  and  C_3
    3  A    between atoms: C_6  and  C_7
    4  A    between atoms: C_7  and  C_9
    5  A    between atoms: C_15  and  O_16
                            x       y       z     vdW  Elec       q    Type
                         _______ _______ _______ _____ _____    ______ ____

>  <TORSDO>
F 4

$$$$
ox2_shuffle_esm0_ligand
 OpenBabel10092621223D

 18 19  0  0  0  0  0  0  0  0999 V2000
   -2.1510   -2.6360    7.4860 C   0  0  0  0  0  0  0  0  0  0  0  0
   -1.3250   -3.3250    6.6050 C   0  0  0  0  0  3  0  0  0  0  0  0
    0.0190   -3.0500    6.5750 C   0  0  0  0  0  3  0  0  0  0  0  0
    0.5670   -2.1050    7.4120 C   0  0  0  0  0  0  0  0  0  0  0  0
   -0.2620   -1.4040    8.2770 C   0  0  0  0  0  0  0  0  0  0  0  0
   -1.6150   -1.6820    8.3150 C   0  0  0  0  0  3  0  0  0  0  0  0
   -4.4330   -1.9800    7.0050 C   0  0  0  0  0  1  0  0  0  0  0  0
   -3.4780   -2.8810    7.5720 O   0  0  0  0  0  0  0  0  0  0  0  0
    2.0200   -1.7880    7.4290 C   0  0  0  0  0  0  0  0  0  0  0  0
    2.7160   -2.4440    8.1610 O   0  0  0  0  0  0  0  0  0  0  0  0
    2.6830   -0.7830    6.5750 C   0  0  0  0  0  0  0  0  0  0  0  0
    2.0020   -0.2920    5.4620 C   0  0  0  0  0  3  0  0  0  0  0  0
    2.5740    0.6620    4.6510 C   0  0  0  0  0  3  0  0  0  0  0  0
    3.8370    1.1470    4.9250 C   0  0  0  0  0  3  0  0  0  0  0  0
    4.5140    0.6760    6.0330 C   0  0  0  0  0  3  0  0  0  0  0  0
    3.9290   -0.2750    6.8500 C   0  0  0  0  0  3  0  0  0  0  0  0
    0.2860   -0.4540    9.0800 O   0  0  0  0  0  0  0  0  0  0  0  0
   -0.2880    0.2470    9.4810 H   0  0  0  0  0  0  0  0  0  0  0  0
  1  8  1  0  0  0  0
  1  6  1  0  0  0  0
  2  1  2  0  0  0  0
  3  2  1  0  0  0  0
  3  4  2  0  0  0  0
  4  9  1  0  0  0  0
  4  5  1  0  0  0  0
  5  6  2  0  0  0  0
  5 17  1  0  0  0  0
  7  8  1  0  0  0  0
  9 10  2  0  0  0  0
 11 16  1  0  0  0  0
 11  9  1  0  0  0  0
 12 11  2  0  0  0  0
 13 14  2  0  0  0  0
 13 12  1  0  0  0  0
 14 15  1  0  0  0  0
 15 16  2  0  0  0  0
 17 18  1  0  0  0  0
M  END
>  <MODEL>
4

>  <REMARK>
 VINA RESULT:      -4.9      3.552      6.998
  Name = ox2_shuffle_esm0_ligand
  5 active torsions:
  status: ('A' for Active; 'I' for Inactive)
    1  A    between atoms: C_1  and  O_2
    2  A    between atoms: O_2  and  C_3
    3  A    between atoms: C_6  and  C_7
    4  A    between atoms: C_7  and  C_9
    5  A    between atoms: C_15  and  O_16
                            x       y       z     vdW  Elec       q    Type
                         _______ _______ _______ _____ _____    ______ ____

>  <TORSDO>
F 4

$$$$
ox2_shuffle_esm0_ligand
 OpenBabel10092621223D

 18 19  0  0  0  0  0  0  0  0999 V2000
   -0.8600    2.3620    7.7770 C   0  0  0  0  0  0  0  0  0  0  0  0
   -0.3090    3.0710    6.7160 C   0  0  0  0  0  3  0  0  0  0  0  0
    0.7050    2.5140    5.9770 C   0  0  0  0  0  3  0  0  0  0  0  0
    1.1830    1.2570    6.2660 C   0  0  0  0  0  0  0  0  0  0  0  0
    0.6460    0.5580    7.3390 C   0  0  0  0  0  0  0  0  0  0  0  0
   -0.3800    1.1120    8.0810 C   0  0  0  0  0  3  0  0  0  0  0  0
   -2.5590    4.0500    8.1420 C   0  0  0  0  0  1  0  0  0  0  0  0
   -1.8740    2.8530    8.5240 O   0  0  0  0  0  0  0  0  0  0  0  0
    2.2660    0.6050    5.4830 C   0  0  0  0  0  0  0  0  0  0  0  0
    1.9300   -0.1290    4.5870 O   0  0  0  0  0  0  0  0  0  0  0  0
    3.7110    0.8360    5.6700 C   0  0  0  0  0  0  0  0  0  0  0  0
    4.3810    0.1300    6.6690 C   0  0  0  0  0  3  0  0  0  0  0  0
    5.7330    0.2980    6.8640 C   0  0  0  0  0  3  0  0  0  0  0  0
    6.4500    1.1740    6.0750 C   0  0  0  0  0  3  0  0  0  0  0  0
    5.7980    1.8690    5.0750 C   0  0  0  0  0  3  0  0  0  0  0  0
    4.4400    1.6870    4.8760 C   0  0  0  0  0  3  0  0  0  0  0  0
    1.1440   -0.6730    7.6330 O   0  0  0  0  0  0  0  0  0  0  0  0
    1.2190   -0.9640    8.5760 H   0  0  0  0  0  0  0  0  0  0  0  0
  1  6  1  0  0  0  0
  1  8  1  0  0  0  0
  2  1  2  0  0  0  0
  3  4  2  0  0  0  0
  3  2  1  0  0  0  0
  4  5  1  0  0  0  0
  5 17  1  0  0  0  0
  5  6  2  0  0  0  0
  7  8  1  0  0  0  0
  9 11  1  0  0  0  0
  9  4  1  0  0  0  0
 10  9  2  0  0  0  0
 11 12  1  0  0  0  0
 12 13  2  0  0  0  0
 14 13  1  0  0  0  0
 15 14  2  0  0  0  0
 16 15  1  0  0  0  0
 16 11  2  0  0  0  0
 17 18  1  0  0  0  0
M  END
>  <MODEL>
5

>  <REMARK>
 VINA RESULT:      -4.9      3.023      4.717
  Name = ox2_shuffle_esm0_ligand
  5 active torsions:
  status: ('A' for Active; 'I' for Inactive)
    1  A    between atoms: C_1  and  O_2
    2  A    between atoms: O_2  and  C_3
    3  A    between atoms: C_6  and  C_7
    4  A    between atoms: C_7  and  C_9
    5  A    between atoms: C_15  and  O_16
                            x       y       z     vdW  Elec       q    Type
                         _______ _______ _______ _____ _____    ______ ____

>  <TORSDO>
F 4

$$$$
ox2_shuffle_esm0_ligand
 OpenBabel10092621223D

 18 19  0  0  0  0  0  0  0  0999 V2000
    5.0420    6.0430    6.5300 C   0  0  0  0  0  0  0  0  0  0  0  0
    4.2060    5.6370    5.4960 C   0  0  0  0  0  3  0  0  0  0  0  0
    4.2370    4.3350    5.0660 C   0  0  0  0  0  3  0  0  0  0  0  0
    5.0800    3.4160    5.6480 C   0  0  0  0  0  0  0  0  0  0  0  0
    5.9280    3.8280    6.6680 C   0  0  0  0  0  0  0  0  0  0  0  0
    5.8960    5.1370    7.1090 C   0  0  0  0  0  3  0  0  0  0  0  0
    4.8370    8.4250    6.1360 C   0  0  0  0  0  1  0  0  0  0  0  0
    5.0380    7.3080    7.0080 O   0  0  0  0  0  0  0  0  0  0  0  0
    5.1340    1.9910    5.2300 C   0  0  0  0  0  0  0  0  0  0  0  0
    6.1620    1.6020    4.7360 O   0  0  0  0  0  0  0  0  0  0  0  0
    4.0570    1.0010    5.4320 C   0  0  0  0  0  0  0  0  0  0  0  0
    4.1060    0.1740    6.5530 C   0  0  0  0  0  3  0  0  0  0  0  0
    3.1120   -0.7470    6.7920 C   0  0  0  0  0  3  0  0  0  0  0  0
    2.0490   -0.8710    5.9210 C   0  0  0  0  0  3  0  0  0  0  0  0
    1.9850   -0.0480    4.8130 C   0  0  0  0  0  3  0  0  0  0  0  0
    2.9820    0.8840    4.5850 C   0  0  0  0  0  3  0  0  0  0  0  0
    6.7760    2.9180    7.2190 O   0  0  0  0  0  0  0  0  0  0  0  0
    7.5650    2.6050    6.7090 H   0  0  0  0  0  0  0  0  0  0  0  0
  1  8  1  0  0  0  0
  1  6  1  0  0  0  0
  2  1  2  0  0  0  0
  3  2  1  0  0  0  0
  3  4  2  0  0  0  0
  4  5  1  0  0  0  0
  5  6  2  0  0  0  0
  5 17  1  0  0  0  0
  7  8  1  0  0  0  0
  9 11  1  0  0  0  0
  9  4  1  0  0  0  0
 10  9  2  0  0  0  0
 11 12  1  0  0  0  0
 12 13  2  0  0  0  0
 14 13  1  0  0  0  0
 15 14  2  0  0  0  0
 16 15  1  0  0  0  0
 16 11  2  0  0  0  0
 18 17  1  0  0  0  0
M  END
>  <MODEL>
6

>  <REMARK>
 VINA RESULT:      -4.9      1.694      2.494
  Name = ox2_shuffle_esm0_ligand
  5 active torsions:
  status: ('A' for Active; 'I' for Inactive)
    1  A    between atoms: C_1  and  O_2
    2  A    between atoms: O_2  and  C_3
    3  A    between atoms: C_6  and  C_7
    4  A    between atoms: C_7  and  C_9
    5  A    between atoms: C_15  and  O_16
                            x       y       z     vdW  Elec       q    Type
                         _______ _______ _______ _____ _____    ______ ____

>  <TORSDO>
F 4

$$$$
ox2_shuffle_esm0_ligand
 OpenBabel10092621223D

 18 19  0  0  0  0  0  0  0  0999 V2000
    1.2020    4.3760    6.8260 C   0  0  0  0  0  0  0  0  0  0  0  0
    0.1680    3.4890    6.5510 C   0  0  0  0  0  3  0  0  0  0  0  0
    0.4560    2.2240    6.1050 C   0  0  0  0  0  3  0  0  0  0  0  0
    1.7580    1.8130    5.9320 C   0  0  0  0  0  0  0  0  0  0  0  0
    2.7890    2.7070    6.1880 C   0  0  0  0  0  0  0  0  0  0  0  0
    2.5040    3.9800    6.6430 C   0  0  0  0  0  3  0  0  0  0  0  0
    0.2270    6.5730    6.5190 C   0  0  0  0  0  1  0  0  0  0  0  0
    0.9760    5.6270    7.2870 O   0  0  0  0  0  0  0  0  0  0  0  0
    2.1190    0.4470    5.4700 C   0  0  0  0  0  0  0  0  0  0  0  0
    2.5210    0.3380    4.3400 O   0  0  0  0  0  0  0  0  0  0  0  0
    2.0870   -0.7710    6.3040 C   0  0  0  0  0  0  0  0  0  0  0  0
    3.0660   -0.9420    7.2810 C   0  0  0  0  0  3  0  0  0  0  0  0
    3.0620   -2.0520    8.0960 C   0  0  0  0  0  3  0  0  0  0  0  0
    2.0870   -3.0190    7.9550 C   0  0  0  0  0  3  0  0  0  0  0  0
    1.1050   -2.8520    6.9980 C   0  0  0  0  0  3  0  0  0  0  0  0
    1.1090   -1.7290    6.1900 C   0  0  0  0  0  3  0  0  0  0  0  0
    4.0710    2.3000    5.9870 O   0  0  0  0  0  0  0  0  0  0  0  0
    4.7180    2.3160    6.7370 H   0  0  0  0  0  0  0  0  0  0  0  0
  1  8  1  0  0  0  0
  2  1  2  0  0  0  0
  3  2  1  0  0  0  0
  4  3  2  0  0  0  0
  4  5  1  0  0  0  0
  5  6  2  0  0  0  0
  6  1  1  0  0  0  0
  7  8  1  0  0  0  0
  9  4  1  0  0  0  0
  9 11  1  0  0  0  0
 10  9  2  0  0  0  0
 11 12  1  0  0  0  0
 12 13  2  0  0  0  0
 14 13  1  0  0  0  0
 15 14  2  0  0  0  0
 16 11  2  0  0  0  0
 16 15  1  0  0  0  0
 17  5  1  0  0  0  0
 17 18  1  0  0  0  0
M  END
>  <MODEL>
7

>  <REMARK>
 VINA RESULT:      -4.8      1.713      2.121
  Name = ox2_shuffle_esm0_ligand
  5 active torsions:
  status: ('A' for Active; 'I' for Inactive)
    1  A    between atoms: C_1  and  O_2
    2  A    between atoms: O_2  and  C_3
    3  A    between atoms: C_6  and  C_7
    4  A    between atoms: C_7  and  C_9
    5  A    between atoms: C_15  and  O_16
                            x       y       z     vdW  Elec       q    Type
                         _______ _______ _______ _____ _____    ______ ____

>  <TORSDO>
F 4

$$$$
ox2_shuffle_esm0_ligand
 OpenBabel10092621223D

 18 19  0  0  0  0  0  0  0  0999 V2000
    2.2250   -0.7620    6.1050 C   0  0  0  0  0  0  0  0  0  0  0  0
    2.1590    0.1000    5.0160 C   0  0  0  0  0  3  0  0  0  0  0  0
    3.1880    0.9760    4.7770 C   0  0  0  0  0  3  0  0  0  0  0  0
    4.2920    1.0110    5.5960 C   0  0  0  0  0  0  0  0  0  0  0  0
    4.3480    0.1640    6.6950 C   0  0  0  0  0  0  0  0  0  0  0  0
    3.3180   -0.7250    6.9360 C   0  0  0  0  0  3  0  0  0  0  0  0
    1.4220   -2.6480    7.3950 C   0  0  0  0  0  1  0  0  0  0  0  0
    1.2510   -1.6600    6.3750 O   0  0  0  0  0  0  0  0  0  0  0  0
    5.4390    1.9290    5.3650 C   0  0  0  0  0  0  0  0  0  0  0  0
    6.4260    1.4580    4.8580 O   0  0  0  0  0  0  0  0  0  0  0  0
    5.4410    3.3780    5.6450 C   0  0  0  0  0  0  0  0  0  0  0  0
    6.5870    3.9560    6.1890 C   0  0  0  0  0  3  0  0  0  0  0  0
    6.6400    5.3080    6.4450 C   0  0  0  0  0  3  0  0  0  0  0  0
    5.5550    6.1150    6.1710 C   0  0  0  0  0  3  0  0  0  0  0  0
    4.4190    5.5540    5.6200 C   0  0  0  0  0  3  0  0  0  0  0  0
    4.3760    4.1960    5.3550 C   0  0  0  0  0  3  0  0  0  0  0  0
    5.4320    0.2260    7.5130 O   0  0  0  0  0  0  0  0  0  0  0  0
    5.6090    1.0460    8.0400 H   0  0  0  0  0  0  0  0  0  0  0  0
  1  8  1  0  0  0  0
  1  6  1  0  0  0  0
  2  1  2  0  0  0  0
  3  2  1  0  0  0  0
  3  4  2  0  0  0  0
  4  5  1  0  0  0  0
  5  6  2  0  0  0  0
  5 17  1  0  0  0  0
  8  7  1  0  0  0  0
  9  4  1  0  0  0  0
  9 11  1  0  0  0  0
 10  9  2  0  0  0  0
 11 12  1  0  0  0  0
 12 13  2  0  0  0  0
 14 13  1  0  0  0  0
 15 14  2  0  0  0  0
 16 15  1  0  0  0  0
 16 11  2  0  0  0  0
 17 18  1  0  0  0  0
M  END
>  <MODEL>
8

>  <REMARK>
 VINA RESULT:      -4.8      1.911      6.000
  Name = ox2_shuffle_esm0_ligand
  5 active torsions:
  status: ('A' for Active; 'I' for Inactive)
    1  A    between atoms: C_1  and  O_2
    2  A    between atoms: O_2  and  C_3
    3  A    between atoms: C_6  and  C_7
    4  A    between atoms: C_7  and  C_9
    5  A    between atoms: C_15  and  O_16
                            x       y       z     vdW  Elec       q    Type
                         _______ _______ _______ _____ _____    ______ ____

>  <TORSDO>
F 4

$$$$
ox2_shuffle_esm0_ligand
 OpenBabel10092621223D

 18 19  0  0  0  0  0  0  0  0999 V2000
   -0.2840   -2.3870    7.8320 C   0  0  0  0  0  0  0  0  0  0  0  0
    0.4140   -2.8440    6.7200 C   0  0  0  0  0  3  0  0  0  0  0  0
    1.1980   -1.9760    6.0030 C   0  0  0  0  0  3  0  0  0  0  0  0
    1.3110   -0.6550    6.3710 C   0  0  0  0  0  0  0  0  0  0  0  0
    0.5970   -0.1950    7.4700 C   0  0  0  0  0  0  0  0  0  0  0  0
   -0.1880   -1.0670    8.1990 C   0  0  0  0  0  3  0  0  0  0  0  0
   -1.6070   -2.7540    9.8270 C   0  0  0  0  0  1  0  0  0  0  0  0
   -1.0530   -3.2020    8.5870 O   0  0  0  0  0  0  0  0  0  0  0  0
    2.1630    0.3180    5.6370 C   0  0  0  0  0  0  0  0  0  0  0  0
    1.6140    1.0370    4.8410 O   0  0  0  0  0  0  0  0  0  0  0  0
    3.6090    0.5170    5.8520 C   0  0  0  0  0  0  0  0  0  0  0  0
    4.3030    1.3770    5.0030 C   0  0  0  0  0  3  0  0  0  0  0  0
    5.6480    1.6100    5.1810 C   0  0  0  0  0  3  0  0  0  0  0  0
    6.3360    0.9890    6.2040 C   0  0  0  0  0  3  0  0  0  0  0  0
    5.6540    0.1430    7.0580 C   0  0  0  0  0  3  0  0  0  0  0  0
    4.3000   -0.0770    6.8810 C   0  0  0  0  0  3  0  0  0  0  0  0
    0.6950    1.1190    7.8090 O   0  0  0  0  0  0  0  0  0  0  0  0
    1.5670    1.5820    7.7450 H   0  0  0  0  0  0  0  0  0  0  0  0
  1  6  1  0  0  0  0
  1  8  1  0  0  0  0
  2  1  2  0  0  0  0
  3  4  2  0  0  0  0
  3  2  1  0  0  0  0
  4  5  1  0  0  0  0
  5 17  1  0  0  0  0
  5  6  2  0  0  0  0
  8  7  1  0  0  0  0
  9 11  1  0  0  0  0
  9  4  1  0  0  0  0
 10  9  2  0  0  0  0
 11 16  1  0  0  0  0
 12 13  1  0  0  0  0
 12 11  2  0  0  0  0
 13 14  2  0  0  0  0
 14 15  1  0  0  0  0
 16 15  2  0  0  0  0
 18 17  1  0  0  0  0
M  END
>  <MODEL>
9

>  <REMARK>
 VINA RESULT:      -4.7      2.833      6.178
  Name = ox2_shuffle_esm0_ligand
  5 active torsions:
  status: ('A' for Active; 'I' for Inactive)
    1  A    between atoms: C_1  and  O_2
    2  A    between atoms: O_2  and  C_3
    3  A    between atoms: C_6  and  C_7
    4  A    between atoms: C_7  and  C_9
    5  A    between atoms: C_15  and  O_16
                            x       y       z     vdW  Elec       q    Type
                         _______ _______ _______ _____ _____    ______ ____

>  <TORSDO>
F 4

$$$$
