bgox31_4_ligand
 OpenBabel10092621243D

 18 19  0  0  0  0  0  0  0  0999 V2000
    4.1620   -4.2220    6.3410 C   0  0  0  0  0  0  0  0  0  0  0  0
    3.6480   -3.2350    5.5450 C   0  0  0  0  0  3  0  0  0  0  0  0
    2.9210   -2.1270    6.1120 C   0  0  0  0  0  3  0  0  0  0  0  0
    2.7200   -2.1440    7.4990 C   0  0  0  0  0  0  0  0  0  0  0  0
    3.2710   -3.1460    8.2870 C   0  0  0  0  0  0  0  0  0  0  0  0
    3.9950   -4.2160    7.7280 C   0  0  0  0  0  3  0  0  0  0  0  0
    6.3070   -5.0180    5.6570 C   0  0  0  0  0  1  0  0  0  0  0  0
    4.8740   -5.2380    5.7550 O   0  0  0  0  0  0  0  0  0  0  0  0
    1.9460   -1.0240    8.0630 C   0  0  0  0  0  0  0  0  0  0  0  0
    0.8370   -1.3210    8.6180 O   0  0  0  0  0  0  0  0  0  0  0  0
    2.4650    0.3350    8.2430 C   0  0  0  0  0  0  0  0  0  0  0  0
    1.5300    1.3780    8.2080 C   0  0  0  0  0  3  0  0  0  0  0  0
    1.9900    2.7110    8.2860 C   0  0  0  0  0  3  0  0  0  0  0  0
    3.3260    2.9640    8.2960 C   0  0  0  0  0  3  0  0  0  0  0  0
    4.2690    1.9510    8.2680 C   0  0  0  0  0  3  0  0  0  0  0  0
    3.8470    0.6070    8.2110 C   0  0  0  0  0  3  0  0  0  0  0  0
    3.0500   -3.0880    9.6740 O   0  0  0  0  0  0  0  0  0  0  0  0
    3.6990   -2.6230   10.2600 H   0  0  0  0  0  0  0  0  0  0  0  0
  1  6  1  0  0  0  0
  2  3  1  0  0  0  0
  2  1  2  0  0  0  0
  3  4  2  0  0  0  0
  4  9  1  0  0  0  0
  4  5  1  0  0  0  0
  5 17  1  0  0  0  0
  6  5  2  0  0  0  0
  7  8  1  0  0  0  0
  8  1  1  0  0  0  0
  9 11  1  0  0  0  0
  9 10  2  0  0  0  0
 12 11  2  0  0  0  0
 12 13  1  0  0  0  0
 13 14  2  0  0  0  0
 15 14  1  0  0  0  0
 16 11  1  0  0  0  0
 16 15  2  0  0  0  0
 17 18  1  0  0  0  0
M  END
>  <MODEL>
1

>  <REMARK>
 VINA RESULT:      -4.6      0.000      0.000
  Name = bgox31_4_ligand
  5 active torsions:
  status: ('A' for Active; 'I' for Inactive)
    1  A    between atoms: C_1  and  O_2
    2  A    between atoms: O_2  and  C_3
    3  A    between atoms: C_6  and  C_7
    4  A    between atoms: C_7  and  C_9
    5  A    between atoms: C_15  and  O_16
                            x       y       z     vdW  Elec       q    Type
                         _______ _______ _______ _____ _____    ______ ____

>  <TORSDO>
F 4

$$$$
bgox31_4_ligand
 OpenBabel10092621243D

 18 19  0  0  0  0  0  0  0  0999 V2000
    0.9130   -1.8450   10.5980 C   0  0  0  0  0  0  0  0  0  0  0  0
    1.5040   -0.8060   11.2640 C   0  0  0  0  0  3  0  0  0  0  0  0
    2.1670    0.2550   10.5480 C   0  0  0  0  0  3  0  0  0  0  0  0
    2.2240    0.1380    9.1520 C   0  0  0  0  0  0  0  0  0  0  0  0
    1.5970   -0.9150    8.4980 C   0  0  0  0  0  0  0  0  0  0  0  0
    0.9370   -1.9380    9.2040 C   0  0  0  0  0  3  0  0  0  0  0  0
   -0.6140   -3.6800   10.5640 C   0  0  0  0  0  1  0  0  0  0  0  0
    0.2680   -2.8130   11.3250 O   0  0  0  0  0  0  0  0  0  0  0  0
    2.9330    1.2110    8.4320 C   0  0  0  0  0  0  0  0  0  0  0  0
    4.1140    0.9430    8.0320 O   0  0  0  0  0  0  0  0  0  0  0  0
    2.3010    2.4400    7.9450 C   0  0  0  0  0  0  0  0  0  0  0  0
    3.1570    3.4610    7.5110 C   0  0  0  0  0  3  0  0  0  0  0  0
    2.6010    4.6980    7.1170 C   0  0  0  0  0  3  0  0  0  0  0  0
    1.2660    4.9120    7.2570 C   0  0  0  0  0  3  0  0  0  0  0  0
    0.4090    3.9390    7.7430 C   0  0  0  0  0  3  0  0  0  0  0  0
    0.9250    2.6850    8.1250 C   0  0  0  0  0  3  0  0  0  0  0  0
    1.6730   -0.9570    7.0960 O   0  0  0  0  0  0  0  0  0  0  0  0
    0.8890   -1.2480    6.5650 H   0  0  0  0  0  0  0  0  0  0  0  0
  1  2  1  0  0  0  0
  1  8  1  0  0  0  0
  3  2  2  0  0  0  0
  4  3  1  0  0  0  0
  5  4  2  0  0  0  0
  5  6  1  0  0  0  0
  6  1  2  0  0  0  0
  7  8  1  0  0  0  0
  9  4  1  0  0  0  0
 10  9  2  0  0  0  0
 11 16  1  0  0  0  0
 11  9  1  0  0  0  0
 12 11  2  0  0  0  0
 13 14  2  0  0  0  0
 13 12  1  0  0  0  0
 14 15  1  0  0  0  0
 15 16  2  0  0  0  0
 17  5  1  0  0  0  0
 18 17  1  0  0  0  0
M  END
>  <MODEL>
2

>  <REMARK>
 VINA RESULT:      -4.5      3.223      4.616
  Name = bgox31_4_ligand
  5 active torsions:
  status: ('A' for Active; 'I' for Inactive)
    1  A    between atoms: C_1  and  O_2
    2  A    between atoms: O_2  and  C_3
    3  A    between atoms: C_6  and  C_7
    4  A    between atoms: C_7  and  C_9
    5  A    between atoms: C_15  and  O_16
                            x       y       z     vdW  Elec       q    Type
                         _______ _______ _______ _____ _____    ______ ____

>  <TORSDO>
F 4

$$$$
bgox31_4_ligand
 OpenBabel10092621243D

 18 19  0  0  0  0  0  0  0  0999 V2000
    4.2200   -1.9860    7.0550 C   0  0  0  0  0  0  0  0  0  0  0  0
    4.9780   -1.0070    7.6390 C   0  0  0  0  0  3  0  0  0  0  0  0
    4.3610    0.1090    8.3090 C   0  0  0  0  0  3  0  0  0  0  0  0
    2.9600    0.1700    8.2810 C   0  0  0  0  0  0  0  0  0  0  0  0
    2.2140   -0.8470    7.7010 C   0  0  0  0  0  0  0  0  0  0  0  0
    2.8240   -1.9440    7.0640 C   0  0  0  0  0  3  0  0  0  0  0  0
    4.3290   -4.3570    6.7900 C   0  0  0  0  0  1  0  0  0  0  0  0
    4.8570   -3.0450    6.4580 O   0  0  0  0  0  0  0  0  0  0  0  0
    2.3410    1.3340    8.9400 C   0  0  0  0  0  0  0  0  0  0  0  0
    2.2110    1.2670   10.2070 O   0  0  0  0  0  0  0  0  0  0  0  0
    2.1000    2.6240    8.2890 C   0  0  0  0  0  0  0  0  0  0  0  0
    0.7660    2.9570    8.0210 C   0  0  0  0  0  3  0  0  0  0  0  0
    0.4870    4.1470    7.3140 C   0  0  0  0  0  3  0  0  0  0  0  0
    1.5100    4.8960    6.8240 C   0  0  0  0  0  3  0  0  0  0  0  0
    2.8360    4.5530    7.0230 C   0  0  0  0  0  3  0  0  0  0  0  0
    3.1540    3.3840    7.7420 C   0  0  0  0  0  3  0  0  0  0  0  0
    0.8140   -0.7350    7.7300 O   0  0  0  0  0  0  0  0  0  0  0  0
    0.2600   -1.2760    7.1140 H   0  0  0  0  0  0  0  0  0  0  0  0
  1  6  2  0  0  0  0
  1  2  1  0  0  0  0
  2  3  2  0  0  0  0
  4  3  1  0  0  0  0
  4  9  1  0  0  0  0
  5 17  1  0  0  0  0
  5  4  2  0  0  0  0
  6  5  1  0  0  0  0
  8  7  1  0  0  0  0
  8  1  1  0  0  0  0
  9 10  2  0  0  0  0
 11  9  1  0  0  0  0
 12 11  1  0  0  0  0
 13 12  2  0  0  0  0
 14 15  2  0  0  0  0
 14 13  1  0  0  0  0
 15 16  1  0  0  0  0
 16 11  2  0  0  0  0
 18 17  1  0  0  0  0
M  END
>  <MODEL>
3

>  <REMARK>
 VINA RESULT:      -4.5      1.643      2.796
  Name = bgox31_4_ligand
  5 active torsions:
  status: ('A' for Active; 'I' for Inactive)
    1  A    between atoms: C_1  and  O_2
    2  A    between atoms: O_2  and  C_3
    3  A    between atoms: C_6  and  C_7
    4  A    between atoms: C_7  and  C_9
    5  A    between atoms: C_15  and  O_16
                            x       y       z     vdW  Elec       q    Type
                         _______ _______ _______ _____ _____    ______ ____

>  <TORSDO>
F 4

$$$$
bgox31_4_ligand
 OpenBabel10092621243D

 18 19  0  0  0  0  0  0  0  0999 V2000
    2.9590    2.4370    7.9020 C   0  0  0  0  0  0  0  0  0  0  0  0
    4.1910    1.9030    8.1620 C   0  0  0  0  0  3  0  0  0  0  0  0
    4.3450    0.5020    8.4630 C   0  0  0  0  0  3  0  0  0  0  0  0
    3.1730   -0.2640    8.5320 C   0  0  0  0  0  0  0  0  0  0  0  0
    1.9360    0.2970    8.2430 C   0  0  0  0  0  0  0  0  0  0  0  0
    1.7960    1.6630    7.9320 C   0  0  0  0  0  3  0  0  0  0  0  0
    3.9150    4.2740    6.7140 C   0  0  0  0  0  1  0  0  0  0  0  0
    2.8710    3.7700    7.5890 O   0  0  0  0  0  0  0  0  0  0  0  0
    3.3390   -1.6880    8.8740 C   0  0  0  0  0  0  0  0  0  0  0  0
    2.9630   -2.0410   10.0410 O   0  0  0  0  0  0  0  0  0  0  0  0
    3.6670   -2.7400    7.9080 C   0  0  0  0  0  0  0  0  0  0  0  0
    4.5080   -3.7680    8.3540 C   0  0  0  0  0  3  0  0  0  0  0  0
    4.9260   -4.7560    7.4360 C   0  0  0  0  0  3  0  0  0  0  0  0
    4.5900   -4.6420    6.1240 C   0  0  0  0  0  3  0  0  0  0  0  0
    3.8110   -3.6010    5.6490 C   0  0  0  0  0  3  0  0  0  0  0  0
    3.3580   -2.6080    6.5390 C   0  0  0  0  0  3  0  0  0  0  0  0
    0.8050   -0.5330    8.3080 O   0  0  0  0  0  0  0  0  0  0  0  0
   -0.0830   -0.1470    8.5170 H   0  0  0  0  0  0  0  0  0  0  0  0
  1  6  2  0  0  0  0
  1  2  1  0  0  0  0
  2  3  2  0  0  0  0
  3  4  1  0  0  0  0
  4  9  1  0  0  0  0
  5 17  1  0  0  0  0
  5  4  2  0  0  0  0
  6  5  1  0  0  0  0
  7  8  1  0  0  0  0
  8  1  1  0  0  0  0
  9 10  2  0  0  0  0
 11 12  1  0  0  0  0
 11  9  1  0  0  0  0
 13 12  2  0  0  0  0
 14 13  1  0  0  0  0
 15 14  2  0  0  0  0
 15 16  1  0  0  0  0
 16 11  2  0  0  0  0
 17 18  1  0  0  0  0
M  END
>  <MODEL>
4

>  <REMARK>
 VINA RESULT:      -4.2      1.649      5.872
  Name = bgox31_4_ligand
  5 active torsions:
  status: ('A' for Active; 'I' for Inactive)
    1  A    between atoms: C_1  and  O_2
    2  A    between atoms: O_2  and  C_3
    3  A    between atoms: C_6  and  C_7
    4  A    between atoms: C_7  and  C_9
    5  A    between atoms: C_15  and  O_16
                            x       y       z     vdW  Elec       q    Type
                         _______ _______ _______ _____ _____    ______ ____

>  <TORSDO>
F 4

$$$$
bgox31_4_ligand
 OpenBabel10092621243D

 18 19  0  0  0  0  0  0  0  0999 V2000
    2.4620    2.5570    9.8060 C   0  0  0  0  0  0  0  0  0  0  0  0
    1.9040    2.2390    8.5980 C   0  0  0  0  0  3  0  0  0  0  0  0
    1.6200    0.8700    8.2490 C   0  0  0  0  0  3  0  0  0  0  0  0
    1.9960   -0.1130    9.1760 C   0  0  0  0  0  0  0  0  0  0  0  0
    2.5410    0.2380   10.4040 C   0  0  0  0  0  0  0  0  0  0  0  0
    2.7990    1.5790   10.7460 C   0  0  0  0  0  3  0  0  0  0  0  0
    1.9680    4.8310    9.2710 C   0  0  0  0  0  1  0  0  0  0  0  0
    2.6820    3.8780   10.1030 O   0  0  0  0  0  0  0  0  0  0  0  0
    1.7320   -1.5110    8.7930 C   0  0  0  0  0  0  0  0  0  0  0  0
    0.5400   -1.9320    8.9640 O   0  0  0  0  0  0  0  0  0  0  0  0
    2.6560   -2.3480    8.0230 C   0  0  0  0  0  0  0  0  0  0  0  0
    2.7970   -2.0470    6.6620 C   0  0  0  0  0  3  0  0  0  0  0  0
    3.6050   -2.8800    5.8580 C   0  0  0  0  0  3  0  0  0  0  0  0
    4.1510   -4.0060    6.3890 C   0  0  0  0  0  3  0  0  0  0  0  0
    3.9740   -4.3570    7.7160 C   0  0  0  0  0  3  0  0  0  0  0  0
    3.1910   -3.5390    8.5550 C   0  0  0  0  0  3  0  0  0  0  0  0
    2.8730   -0.7960   11.2960 O   0  0  0  0  0  0  0  0  0  0  0  0
    3.8230   -1.0090   11.4770 H   0  0  0  0  0  0  0  0  0  0  0  0
  1  8  1  0  0  0  0
  1  6  1  0  0  0  0
  2  1  2  0  0  0  0
  3  2  1  0  0  0  0
  3  4  2  0  0  0  0
  4  5  1  0  0  0  0
  5  6  2  0  0  0  0
  5 17  1  0  0  0  0
  7  8  1  0  0  0  0
  9 10  2  0  0  0  0
  9  4  1  0  0  0  0
 11 16  1  0  0  0  0
 11  9  1  0  0  0  0
 12 11  2  0  0  0  0
 13 14  2  0  0  0  0
 13 12  1  0  0  0  0
 14 15  1  0  0  0  0
 15 16  2  0  0  0  0
 17 18  1  0  0  0  0
M  END
>  <MODEL>
5

>  <REMARK>
 VINA RESULT:      -4.1      2.052      5.966
  Name = bgox31_4_ligand
  5 active torsions:
  status: ('A' for Active; 'I' for Inactive)
    1  A    between atoms: C_1  and  O_2
    2  A    between atoms: O_2  and  C_3
    3  A    between atoms: C_6  and  C_7
    4  A    between atoms: C_7  and  C_9
    5  A    between atoms: C_15  and  O_16
                            x       y       z     vdW  Elec       q    Type
                         _______ _______ _______ _____ _____    ______ ____

>  <TORSDO>
F 4

$$$$
bgox31_4_ligand
 OpenBabel10092621243D

 18 19  0  0  0  0  0  0  0  0999 V2000
    3.9850   -3.7500    6.6990 C   0  0  0  0  0  0  0  0  0  0  0  0
    4.1550   -4.0250    8.0280 C   0  0  0  0  0  3  0  0  0  0  0  0
    3.4890   -3.2440    9.0390 C   0  0  0  0  0  3  0  0  0  0  0  0
    2.7120   -2.1630    8.5970 C   0  0  0  0  0  0  0  0  0  0  0  0
    2.5380   -1.9190    7.2410 C   0  0  0  0  0  0  0  0  0  0  0  0
    3.1780   -2.6980    6.2580 C   0  0  0  0  0  3  0  0  0  0  0  0
    6.0420   -4.3110    5.6250 C   0  0  0  0  0  1  0  0  0  0  0  0
    4.6170   -4.5450    5.7750 O   0  0  0  0  0  0  0  0  0  0  0  0
    2.0630   -1.3510    9.6410 C   0  0  0  0  0  0  0  0  0  0  0  0
    2.3390   -0.1060    9.6470 O   0  0  0  0  0  0  0  0  0  0  0  0
    0.9650   -1.8180   10.4910 C   0  0  0  0  0  0  0  0  0  0  0  0
    0.9290   -1.3270   11.8030 C   0  0  0  0  0  3  0  0  0  0  0  0
   -0.0570   -1.8160   12.6890 C   0  0  0  0  0  3  0  0  0  0  0  0
   -0.8860   -2.8160   12.2890 C   0  0  0  0  0  3  0  0  0  0  0  0
   -0.8280   -3.3600   11.0170 C   0  0  0  0  0  3  0  0  0  0  0  0
    0.1290   -2.8830   10.0990 C   0  0  0  0  0  3  0  0  0  0  0  0
    1.7270   -0.8340    6.8670 O   0  0  0  0  0  0  0  0  0  0  0  0
    1.0630   -0.4690    7.5040 H   0  0  0  0  0  0  0  0  0  0  0  0
  1  2  1  0  0  0  0
  2  3  2  0  0  0  0
  4  3  1  0  0  0  0
  4  9  1  0  0  0  0
  5  4  2  0  0  0  0
  6  1  2  0  0  0  0
  6  5  1  0  0  0  0
  7  8  1  0  0  0  0
  8  1  1  0  0  0  0
  9 10  2  0  0  0  0
  9 11  1  0  0  0  0
 11 12  1  0  0  0  0
 12 13  2  0  0  0  0
 14 13  1  0  0  0  0
 15 14  2  0  0  0  0
 16 11  2  0  0  0  0
 16 15  1  0  0  0  0
 17  5  1  0  0  0  0
 17 18  1  0  0  0  0
M  END
>  <MODEL>
6

>  <REMARK>
 VINA RESULT:      -4.1      2.723      4.097
  Name = bgox31_4_ligand
  5 active torsions:
  status: ('A' for Active; 'I' for Inactive)
    1  A    between atoms: C_1  and  O_2
    2  A    between atoms: O_2  and  C_3
    3  A    between atoms: C_6  and  C_7
    4  A    between atoms: C_7  and  C_9
    5  A    between atoms: C_15  and  O_16
                            x       y       z     vdW  Elec       q    Type
                         _______ _______ _______ _____ _____    ______ ____

>  <TORSDO>
F 4

$$$$
bgox31_4_ligand
 OpenBabel10092621243D

 18 19  0  0  0  0  0  0  0  0999 V2000
    2.2070    1.9130    9.5440 C   0  0  0  0  0  0  0  0  0  0  0  0
    2.7960    1.1870   10.5430 C   0  0  0  0  0  3  0  0  0  0  0  0
    3.0100   -0.2320   10.4030 C   0  0  0  0  0  3  0  0  0  0  0  0
    2.5340   -0.8310    9.2280 C   0  0  0  0  0  0  0  0  0  0  0  0
    1.9590   -0.0680    8.2210 C   0  0  0  0  0  0  0  0  0  0  0  0
    1.7700    1.3200    8.3570 C   0  0  0  0  0  3  0  0  0  0  0  0
    1.4280    3.9670    8.6080 C   0  0  0  0  0  1  0  0  0  0  0  0
    2.0570    3.2670    9.7150 O   0  0  0  0  0  0  0  0  0  0  0  0
    2.7270   -2.2880    9.1110 C   0  0  0  0  0  0  0  0  0  0  0  0
    3.8960   -2.6820    8.7860 O   0  0  0  0  0  0  0  0  0  0  0  0
    1.7630   -3.2910    9.5690 C   0  0  0  0  0  0  0  0  0  0  0  0
    2.0870   -4.6330    9.3310 C   0  0  0  0  0  3  0  0  0  0  0  0
    1.1500   -5.6340    9.6710 C   0  0  0  0  0  3  0  0  0  0  0  0
   -0.0790   -5.2780   10.1300 C   0  0  0  0  0  3  0  0  0  0  0  0
   -0.4440   -3.9550   10.3140 C   0  0  0  0  0  3  0  0  0  0  0  0
    0.4720   -2.9300   10.0050 C   0  0  0  0  0  3  0  0  0  0  0  0
    1.5260   -0.7300    7.0590 O   0  0  0  0  0  0  0  0  0  0  0  0
    2.1880   -1.0610    6.4010 H   0  0  0  0  0  0  0  0  0  0  0  0
  1  8  1  0  0  0  0
  1  2  1  0  0  0  0
  3  2  2  0  0  0  0
  4  3  1  0  0  0  0
  5  6  1  0  0  0  0
  5  4  2  0  0  0  0
  6  1  2  0  0  0  0
  7  8  1  0  0  0  0
  9  4  1  0  0  0  0
  9 11  1  0  0  0  0
 10  9  2  0  0  0  0
 11 16  1  0  0  0  0
 12 11  2  0  0  0  0
 12 13  1  0  0  0  0
 13 14  2  0  0  0  0
 14 15  1  0  0  0  0
 16 15  2  0  0  0  0
 17  5  1  0  0  0  0
 18 17  1  0  0  0  0
M  END
>  <MODEL>
7

>  <REMARK>
 VINA RESULT:      -4.1      2.634      6.445
  Name = bgox31_4_ligand
  5 active torsions:
  status: ('A' for Active; 'I' for Inactive)
    1  A    between atoms: C_1  and  O_2
    2  A    between atoms: O_2  and  C_3
    3  A    between atoms: C_6  and  C_7
    4  A    between atoms: C_7  and  C_9
    5  A    between atoms: C_15  and  O_16
                            x       y       z     vdW  Elec       q    Type
                         _______ _______ _______ _____ _____    ______ ____

>  <TORSDO>
F 4

$$$$
bgox31_4_ligand
 OpenBabel10092621243D

 18 19  0  0  0  0  0  0  0  0999 V2000
    2.2400    3.1910    7.7910 C   0  0  0  0  0  0  0  0  0  0  0  0
    1.5190    2.1190    8.2420 C   0  0  0  0  0  3  0  0  0  0  0  0
    2.1590    0.8600    8.5270 C   0  0  0  0  0  3  0  0  0  0  0  0
    3.5340    0.7740    8.2640 C   0  0  0  0  0  0  0  0  0  0  0  0
    4.2470    1.8830    7.8280 C   0  0  0  0  0  0  0  0  0  0  0  0
    3.6170    3.1150    7.5680 C   0  0  0  0  0  3  0  0  0  0  0  0
    0.1490    4.2710    7.3870 C   0  0  0  0  0  1  0  0  0  0  0  0
    1.5870    4.3770    7.5650 O   0  0  0  0  0  0  0  0  0  0  0  0
    4.1720   -0.5280    8.5280 C   0  0  0  0  0  0  0  0  0  0  0  0
    4.4270   -0.8000    9.7470 O   0  0  0  0  0  0  0  0  0  0  0  0
    4.3020   -1.6020    7.5390 C   0  0  0  0  0  0  0  0  0  0  0  0
    3.2380   -2.5090    7.4480 C   0  0  0  0  0  3  0  0  0  0  0  0
    3.3540   -3.6130    6.5750 C   0  0  0  0  0  3  0  0  0  0  0  0
    4.5240   -3.8320    5.9170 C   0  0  0  0  0  3  0  0  0  0  0  0
    5.6100   -2.9840    6.0410 C   0  0  0  0  0  3  0  0  0  0  0  0
    5.5240   -1.8600    6.8860 C   0  0  0  0  0  3  0  0  0  0  0  0
    5.6270    1.7330    7.6080 O   0  0  0  0  0  0  0  0  0  0  0  0
    5.9510    1.1880    6.8470 H   0  0  0  0  0  0  0  0  0  0  0  0
  1  2  1  0  0  0  0
  2  3  2  0  0  0  0
  4  3  1  0  0  0  0
  4  9  1  0  0  0  0
  5  4  2  0  0  0  0
  6  1  2  0  0  0  0
  6  5  1  0  0  0  0
  7  8  1  0  0  0  0
  8  1  1  0  0  0  0
  9 10  2  0  0  0  0
 11  9  1  0  0  0  0
 12 11  1  0  0  0  0
 13 12  2  0  0  0  0
 14 15  2  0  0  0  0
 14 13  1  0  0  0  0
 15 16  1  0  0  0  0
 16 11  2  0  0  0  0
 17  5  1  0  0  0  0
 18 17  1  0  0  0  0
M  END
>  <MODEL>
8

>  <REMARK>
 VINA RESULT:      -4.1      2.436      6.233
  Name = bgox31_4_ligand
  5 active torsions:
  status: ('A' for Active; 'I' for Inactive)
    1  A    between atoms: C_1  and  O_2
    2  A    between atoms: O_2  and  C_3
    3  A    between atoms: C_6  and  C_7
    4  A    between atoms: C_7  and  C_9
    5  A    between atoms: C_15  and  O_16
                            x       y       z     vdW  Elec       q    Type
                         _______ _______ _______ _____ _____    ______ ____

>  <TORSDO>
F 4

$$$$
bgox31_4_ligand
 OpenBabel10092621243D

 18 19  0  0  0  0  0  0  0  0999 V2000
    6.9940   -2.4110    6.1670 C   0  0  0  0  0  0  0  0  0  0  0  0
    6.6280   -1.4400    7.0590 C   0  0  0  0  0  3  0  0  0  0  0  0
    5.2510   -1.2730    7.4510 C   0  0  0  0  0  3  0  0  0  0  0  0
    4.3100   -2.1080    6.8330 C   0  0  0  0  0  0  0  0  0  0  0  0
    4.7100   -3.1000    5.9480 C   0  0  0  0  0  0  0  0  0  0  0  0
    6.0590   -3.2700    5.5830 C   0  0  0  0  0  3  0  0  0  0  0  0
    8.7870   -3.9180    5.7020 C   0  0  0  0  0  1  0  0  0  0  0  0
    8.3220   -2.5500    5.8520 O   0  0  0  0  0  0  0  0  0  0  0  0
    2.9010   -1.9050    7.2160 C   0  0  0  0  0  0  0  0  0  0  0  0
    2.1150   -1.5000    6.2970 O   0  0  0  0  0  0  0  0  0  0  0  0
    2.3120   -2.3580    8.4790 C   0  0  0  0  0  0  0  0  0  0  0  0
    2.6830   -3.6320    8.9280 C   0  0  0  0  0  3  0  0  0  0  0  0
    2.0740   -4.1520   10.0910 C   0  0  0  0  0  3  0  0  0  0  0  0
    1.0760   -3.4560   10.6970 C   0  0  0  0  0  3  0  0  0  0  0  0
    0.6490   -2.2230   10.2350 C   0  0  0  0  0  3  0  0  0  0  0  0
    1.2480   -1.6630    9.0890 C   0  0  0  0  0  3  0  0  0  0  0  0
    3.7160   -3.9180    5.3840 O   0  0  0  0  0  0  0  0  0  0  0  0
    2.8950   -3.5130    5.0070 H   0  0  0  0  0  0  0  0  0  0  0  0
  1  2  1  0  0  0  0
  2  3  2  0  0  0  0
  4  9  1  0  0  0  0
  4  3  1  0  0  0  0
  5  4  2  0  0  0  0
  6  5  1  0  0  0  0
  6  1  2  0  0  0  0
  7  8  1  0  0  0  0
  8  1  1  0  0  0  0
  9 11  1  0  0  0  0
 10  9  2  0  0  0  0
 11 12  2  0  0  0  0
 11 16  1  0  0  0  0
 12 13  1  0  0  0  0
 13 14  2  0  0  0  0
 15 14  1  0  0  0  0
 16 15  2  0  0  0  0
 17  5  1  0  0  0  0
 18 17  1  0  0  0  0
M  END
>  <MODEL>
9

>  <REMARK>
 VINA RESULT:      -4.1      2.614      4.153
  Name = bgox31_4_ligand
  5 active torsions:
  status: ('A' for Active; 'I' for Inactive)
    1  A    between atoms: C_1  and  O_2
    2  A    between atoms: O_2  and  C_3
    3  A    between atoms: C_6  and  C_7
    4  A    between atoms: C_7  and  C_9
    5  A    between atoms: C_15  and  O_16
                            x       y       z     vdW  Elec       q    Type
                         _______ _______ _______ _____ _____    ______ ____

>  <TORSDO>
F 4

$$$$
