ox3_orig_f8_ligand
 OpenBabel10092621223D

 18 19  0  0  0  0  0  0  0  0999 V2000
  -11.5580    6.6180   -5.4570 C   0  0  0  0  0  0  0  0  0  0  0  0
  -11.5240    8.0130   -5.4840 C   0  0  0  0  0  3  0  0  0  0  0  0
  -11.7090    8.7340   -4.3150 C   0  0  0  0  0  3  0  0  0  0  0  0
  -11.9240    8.0760   -3.1080 C   0  0  0  0  0  0  0  0  0  0  0  0
  -11.9650    6.6820   -3.0940 C   0  0  0  0  0  0  0  0  0  0  0  0
  -11.7810    5.9670   -4.2710 C   0  0  0  0  0  3  0  0  0  0  0  0
  -10.5500    6.3310   -7.6480 C   0  0  0  0  0  1  0  0  0  0  0  0
  -11.3770    5.8560   -6.5850 O   0  0  0  0  0  0  0  0  0  0  0  0
  -12.1360    8.8450   -1.8340 C   0  0  0  0  0  0  0  0  0  0  0  0
  -13.1870    8.7090   -1.2530 O   0  0  0  0  0  0  0  0  0  0  0  0
  -11.1240    9.7840   -1.2900 C   0  0  0  0  0  0  0  0  0  0  0  0
   -9.7640    9.5270   -1.3990 C   0  0  0  0  0  3  0  0  0  0  0  0
   -8.8460   10.4040   -0.8500 C   0  0  0  0  0  3  0  0  0  0  0  0
   -9.2590   11.5690   -0.2350 C   0  0  0  0  0  3  0  0  0  0  0  0
  -10.6140   11.8270   -0.1080 C   0  0  0  0  0  3  0  0  0  0  0  0
  -11.5520   10.9270   -0.6160 C   0  0  0  0  0  3  0  0  0  0  0  0
  -12.1990    6.0300   -1.9200 O   0  0  0  0  0  0  0  0  0  0  0  0
  -12.7810    6.4410   -1.2340 H   0  0  0  0  0  0  0  0  0  0  0  0
  1  6  1  0  0  0  0
  2  1  2  0  0  0  0
  2  3  1  0  0  0  0
  3  4  2  0  0  0  0
  4  5  1  0  0  0  0
  4  9  1  0  0  0  0
  5 17  1  0  0  0  0
  6  5  2  0  0  0  0
  7  8  1  0  0  0  0
  8  1  1  0  0  0  0
  9 11  1  0  0  0  0
  9 10  2  0  0  0  0
 11 16  1  0  0  0  0
 12 11  2  0  0  0  0
 12 13  1  0  0  0  0
 13 14  2  0  0  0  0
 14 15  1  0  0  0  0
 16 15  2  0  0  0  0
 17 18  1  0  0  0  0
M  END
>  <MODEL>
1

>  <REMARK>
 VINA RESULT:      -4.4      0.000      0.000
  Name = ox3_orig_f8_ligand
  5 active torsions:
  status: ('A' for Active; 'I' for Inactive)
    1  A    between atoms: C_1  and  O_2
    2  A    between atoms: O_2  and  C_3
    3  A    between atoms: C_6  and  C_7
    4  A    between atoms: C_7  and  C_9
    5  A    between atoms: C_15  and  O_16
                            x       y       z     vdW  Elec       q    Type
                         _______ _______ _______ _____ _____    ______ ____

>  <TORSDO>
F 4

$$$$
ox3_orig_f8_ligand
 OpenBabel10092621223D

 18 19  0  0  0  0  0  0  0  0999 V2000
  -12.1910    9.2870   -1.9710 C   0  0  0  0  0  0  0  0  0  0  0  0
  -12.5730   10.3150   -1.1070 C   0  0  0  0  0  3  0  0  0  0  0  0
  -11.6100   11.0380   -0.4210 C   0  0  0  0  0  3  0  0  0  0  0  0
  -10.2590   10.7520   -0.5900 C   0  0  0  0  0  0  0  0  0  0  0  0
   -9.8890    9.7180   -1.4490 C   0  0  0  0  0  0  0  0  0  0  0  0
  -10.8600    8.9950   -2.1310 C   0  0  0  0  0  3  0  0  0  0  0  0
  -13.0250    7.1170   -2.6690 C   0  0  0  0  0  1  0  0  0  0  0  0
  -13.1030    8.5420   -2.6770 O   0  0  0  0  0  0  0  0  0  0  0  0
   -9.2060   11.5220    0.1540 C   0  0  0  0  0  0  0  0  0  0  0  0
   -8.5880   12.3710   -0.4450 O   0  0  0  0  0  0  0  0  0  0  0  0
   -8.8750   11.2540    1.5750 C   0  0  0  0  0  0  0  0  0  0  0  0
   -9.5900   11.8410    2.6090 C   0  0  0  0  0  3  0  0  0  0  0  0
   -9.2350   11.5990    3.9240 C   0  0  0  0  0  3  0  0  0  0  0  0
   -8.2040   10.7350    4.2320 C   0  0  0  0  0  3  0  0  0  0  0  0
   -7.4740   10.1560    3.2070 C   0  0  0  0  0  3  0  0  0  0  0  0
   -7.7920   10.4280    1.8760 C   0  0  0  0  0  3  0  0  0  0  0  0
   -8.5690    9.4150   -1.6030 O   0  0  0  0  0  0  0  0  0  0  0  0
   -8.2250    8.5370   -1.3030 H   0  0  0  0  0  0  0  0  0  0  0  0
  1  2  1  0  0  0  0
  2  3  2  0  0  0  0
  4  3  1  0  0  0  0
  4  9  1  0  0  0  0
  5  4  2  0  0  0  0
  6  1  2  0  0  0  0
  6  5  1  0  0  0  0
  8  7  1  0  0  0  0
  8  1  1  0  0  0  0
  9 11  1  0  0  0  0
 10  9  2  0  0  0  0
 11 16  2  0  0  0  0
 11 12  1  0  0  0  0
 12 13  2  0  0  0  0
 13 14  1  0  0  0  0
 15 14  2  0  0  0  0
 16 15  1  0  0  0  0
 17  5  1  0  0  0  0
 17 18  1  0  0  0  0
M  END
>  <MODEL>
2

>  <REMARK>
 VINA RESULT:      -4.2      2.886      4.707
  Name = ox3_orig_f8_ligand
  5 active torsions:
  status: ('A' for Active; 'I' for Inactive)
    1  A    between atoms: C_1  and  O_2
    2  A    between atoms: O_2  and  C_3
    3  A    between atoms: C_6  and  C_7
    4  A    between atoms: C_7  and  C_9
    5  A    between atoms: C_15  and  O_16
                            x       y       z     vdW  Elec       q    Type
                         _______ _______ _______ _____ _____    ______ ____

>  <TORSDO>
F 4

$$$$
ox3_orig_f8_ligand
 OpenBabel10092621223D

 18 19  0  0  0  0  0  0  0  0999 V2000
   -5.7490   14.2760   -2.7450 C   0  0  0  0  0  0  0  0  0  0  0  0
   -6.8150   14.6820   -1.9400 C   0  0  0  0  0  3  0  0  0  0  0  0
   -7.4640   13.7620   -1.1320 C   0  0  0  0  0  3  0  0  0  0  0  0
   -7.0600   12.4310   -1.1130 C   0  0  0  0  0  0  0  0  0  0  0  0
   -6.0000   12.0340   -1.9280 C   0  0  0  0  0  0  0  0  0  0  0  0
   -5.3560   12.9620   -2.7370 C   0  0  0  0  0  3  0  0  0  0  0  0
   -4.3600   14.6580   -4.6990 C   0  0  0  0  0  1  0  0  0  0  0  0
   -5.0700   15.1460   -3.5610 O   0  0  0  0  0  0  0  0  0  0  0  0
   -7.7610   11.4210   -0.2500 C   0  0  0  0  0  0  0  0  0  0  0  0
   -7.1990   11.0350    0.7480 O   0  0  0  0  0  0  0  0  0  0  0  0
   -9.0890   10.8590   -0.5960 C   0  0  0  0  0  0  0  0  0  0  0  0
   -9.2130    9.6960   -1.3440 C   0  0  0  0  0  3  0  0  0  0  0  0
  -10.4650    9.2170   -1.6800 C   0  0  0  0  0  3  0  0  0  0  0  0
  -11.6090    9.8520   -1.2390 C   0  0  0  0  0  3  0  0  0  0  0  0
  -11.4970   11.0210   -0.5060 C   0  0  0  0  0  3  0  0  0  0  0  0
  -10.2390   11.5410   -0.1980 C   0  0  0  0  0  3  0  0  0  0  0  0
   -5.6120   10.7270   -1.9340 O   0  0  0  0  0  0  0  0  0  0  0  0
   -5.5090   10.2460   -2.7930 H   0  0  0  0  0  0  0  0  0  0  0  0
  1  6  2  0  0  0  0
  1  2  1  0  0  0  0
  2  3  2  0  0  0  0
  3  4  1  0  0  0  0
  4  9  1  0  0  0  0
  5  4  2  0  0  0  0
  6  5  1  0  0  0  0
  7  8  1  0  0  0  0
  8  1  1  0  0  0  0
  9 10  2  0  0  0  0
 11  9  1  0  0  0  0
 11 16  1  0  0  0  0
 12 11  2  0  0  0  0
 13 12  1  0  0  0  0
 13 14  2  0  0  0  0
 14 15  1  0  0  0  0
 15 16  2  0  0  0  0
 17  5  1  0  0  0  0
 18 17  1  0  0  0  0
M  END
>  <MODEL>
3

>  <REMARK>
 VINA RESULT:      -4.2      4.671      7.079
  Name = ox3_orig_f8_ligand
  5 active torsions:
  status: ('A' for Active; 'I' for Inactive)
    1  A    between atoms: C_1  and  O_2
    2  A    between atoms: O_2  and  C_3
    3  A    between atoms: C_6  and  C_7
    4  A    between atoms: C_7  and  C_9
    5  A    between atoms: C_15  and  O_16
                            x       y       z     vdW  Elec       q    Type
                         _______ _______ _______ _____ _____    ______ ____

>  <TORSDO>
F 4

$$$$
ox3_orig_f8_ligand
 OpenBabel10092621223D

 18 19  0  0  0  0  0  0  0  0999 V2000
  -12.6790   10.4800   -1.2230 C   0  0  0  0  0  0  0  0  0  0  0  0
  -12.2980   11.5530   -0.4150 C   0  0  0  0  0  3  0  0  0  0  0  0
  -10.9740   11.6940   -0.0270 C   0  0  0  0  0  3  0  0  0  0  0  0
  -10.0160   10.7750   -0.4430 C   0  0  0  0  0  0  0  0  0  0  0  0
  -10.4100    9.7020   -1.2420 C   0  0  0  0  0  0  0  0  0  0  0  0
  -11.7390    9.5660   -1.6240 C   0  0  0  0  0  3  0  0  0  0  0  0
  -14.3650    9.0640   -2.2450 C   0  0  0  0  0  1  0  0  0  0  0  0
  -13.9740   10.2960   -1.6380 O   0  0  0  0  0  0  0  0  0  0  0  0
   -8.5800   10.9100   -0.0220 C   0  0  0  0  0  0  0  0  0  0  0  0
   -8.2180   10.3210    0.9690 O   0  0  0  0  0  0  0  0  0  0  0  0
   -7.6110   11.7610   -0.7540 C   0  0  0  0  0  0  0  0  0  0  0  0
   -7.7760   13.1360   -0.8440 C   0  0  0  0  0  3  0  0  0  0  0  0
   -6.8740   13.8980   -1.5640 C   0  0  0  0  0  3  0  0  0  0  0  0
   -5.7720   13.3180   -2.1580 C   0  0  0  0  0  3  0  0  0  0  0  0
   -5.6050   11.9450   -2.0870 C   0  0  0  0  0  3  0  0  0  0  0  0
   -6.5330   11.1580   -1.4030 C   0  0  0  0  0  3  0  0  0  0  0  0
   -9.4820    8.7830   -1.6340 O   0  0  0  0  0  0  0  0  0  0  0  0
   -9.7570    8.0060   -2.1830 H   0  0  0  0  0  0  0  0  0  0  0  0
  1  2  1  0  0  0  0
  2  3  2  0  0  0  0
  4  3  1  0  0  0  0
  4  9  1  0  0  0  0
  5  4  2  0  0  0  0
  6  5  1  0  0  0  0
  6  1  2  0  0  0  0
  7  8  1  0  0  0  0
  8  1  1  0  0  0  0
  9 10  2  0  0  0  0
 11  9  1  0  0  0  0
 12 11  1  0  0  0  0
 13 12  2  0  0  0  0
 14 15  2  0  0  0  0
 14 13  1  0  0  0  0
 15 16  1  0  0  0  0
 16 11  2  0  0  0  0
 17  5  1  0  0  0  0
 18 17  1  0  0  0  0
M  END
>  <MODEL>
4

>  <REMARK>
 VINA RESULT:      -4.2      3.357      5.130
  Name = ox3_orig_f8_ligand
  5 active torsions:
  status: ('A' for Active; 'I' for Inactive)
    1  A    between atoms: C_1  and  O_2
    2  A    between atoms: O_2  and  C_3
    3  A    between atoms: C_6  and  C_7
    4  A    between atoms: C_7  and  C_9
    5  A    between atoms: C_15  and  O_16
                            x       y       z     vdW  Elec       q    Type
                         _______ _______ _______ _____ _____    ______ ____

>  <TORSDO>
F 4

$$$$
ox3_orig_f8_ligand
 OpenBabel10092621223D

 18 19  0  0  0  0  0  0  0  0999 V2000
   -5.9440    8.9700    3.7260 C   0  0  0  0  0  0  0  0  0  0  0  0
   -5.9290    9.2320    5.0970 C   0  0  0  0  0  3  0  0  0  0  0  0
   -4.7310    9.2070    5.7950 C   0  0  0  0  0  3  0  0  0  0  0  0
   -3.5380    8.9270    5.1380 C   0  0  0  0  0  0  0  0  0  0  0  0
   -3.5660    8.6570    3.7700 C   0  0  0  0  0  0  0  0  0  0  0  0
   -4.7700    8.6810    3.0780 C   0  0  0  0  0  3  0  0  0  0  0  0
   -7.5800   10.2080    2.4280 C   0  0  0  0  0  1  0  0  0  0  0  0
   -7.1010    8.9850    2.9870 O   0  0  0  0  0  0  0  0  0  0  0  0
   -2.2340    8.8870    5.8830 C   0  0  0  0  0  0  0  0  0  0  0  0
   -1.4610    9.8040    5.7320 O   0  0  0  0  0  0  0  0  0  0  0  0
   -1.8510    7.7560    6.7620 C   0  0  0  0  0  0  0  0  0  0  0  0
   -0.7730    6.9350    6.4600 C   0  0  0  0  0  3  0  0  0  0  0  0
   -0.4620    5.8660    7.2800 C   0  0  0  0  0  3  0  0  0  0  0  0
   -1.1790    5.6270    8.4350 C   0  0  0  0  0  3  0  0  0  0  0  0
   -2.2660    6.4300    8.7380 C   0  0  0  0  0  3  0  0  0  0  0  0
   -2.6200    7.4850    7.8940 C   0  0  0  0  0  3  0  0  0  0  0  0
   -2.4040    8.3580    3.1220 O   0  0  0  0  0  0  0  0  0  0  0  0
   -2.2520    7.4430    2.7770 H   0  0  0  0  0  0  0  0  0  0  0  0
  1  2  1  0  0  0  0
  2  3  2  0  0  0  0
  4  3  1  0  0  0  0
  4  9  1  0  0  0  0
  5  4  2  0  0  0  0
  6  1  2  0  0  0  0
  6  5  1  0  0  0  0
  7  8  1  0  0  0  0
  8  1  1  0  0  0  0
  9 11  1  0  0  0  0
 10  9  2  0  0  0  0
 11 16  1  0  0  0  0
 12 11  2  0  0  0  0
 12 13  1  0  0  0  0
 13 14  2  0  0  0  0
 14 15  1  0  0  0  0
 16 15  2  0  0  0  0
 17  5  1  0  0  0  0
 18 17  1  0  0  0  0
M  END
>  <MODEL>
5

>  <REMARK>
 VINA RESULT:      -4.1      9.728     12.086
  Name = ox3_orig_f8_ligand
  5 active torsions:
  status: ('A' for Active; 'I' for Inactive)
    1  A    between atoms: C_1  and  O_2
    2  A    between atoms: O_2  and  C_3
    3  A    between atoms: C_6  and  C_7
    4  A    between atoms: C_7  and  C_9
    5  A    between atoms: C_15  and  O_16
                            x       y       z     vdW  Elec       q    Type
                         _______ _______ _______ _____ _____    ______ ____

>  <TORSDO>
F 4

$$$$
ox3_orig_f8_ligand
 OpenBabel10092621223D

 18 19  0  0  0  0  0  0  0  0999 V2000
   -7.9300    2.7570    9.6040 C   0  0  0  0  0  0  0  0  0  0  0  0
   -8.5780    3.9160    9.1720 C   0  0  0  0  0  3  0  0  0  0  0  0
   -8.9110    4.0670    7.8350 C   0  0  0  0  0  3  0  0  0  0  0  0
   -8.6080    3.0680    6.9160 C   0  0  0  0  0  0  0  0  0  0  0  0
   -7.9530    1.9180    7.3570 C   0  0  0  0  0  0  0  0  0  0  0  0
   -7.6200    1.7750    8.6980 C   0  0  0  0  0  3  0  0  0  0  0  0
   -7.0850    1.2850   11.3400 C   0  0  0  0  0  1  0  0  0  0  0  0
   -7.5820    2.5550   10.9170 O   0  0  0  0  0  0  0  0  0  0  0  0
   -8.9540    3.2230    5.4620 C   0  0  0  0  0  0  0  0  0  0  0  0
   -8.0730    3.5330    4.6950 O   0  0  0  0  0  0  0  0  0  0  0  0
  -10.3330    3.0460    4.9460 C   0  0  0  0  0  0  0  0  0  0  0  0
  -11.0480    4.1070    4.4070 C   0  0  0  0  0  3  0  0  0  0  0  0
  -12.3450    3.9180    3.9670 C   0  0  0  0  0  3  0  0  0  0  0  0
  -12.9320    2.6690    4.0070 C   0  0  0  0  0  3  0  0  0  0  0  0
  -12.2340    1.6080    4.5570 C   0  0  0  0  0  3  0  0  0  0  0  0
  -10.9400    1.7940    5.0470 C   0  0  0  0  0  3  0  0  0  0  0  0
   -7.6310    0.9450    6.4590 O   0  0  0  0  0  0  0  0  0  0  0  0
   -6.8680    0.3400    6.6370 H   0  0  0  0  0  0  0  0  0  0  0  0
  1  8  1  0  0  0  0
  2  1  1  0  0  0  0
  3  2  2  0  0  0  0
  4  5  2  0  0  0  0
  4  3  1  0  0  0  0
  5  6  1  0  0  0  0
  6  1  2  0  0  0  0
  8  7  1  0  0  0  0
  9  4  1  0  0  0  0
 10  9  2  0  0  0  0
 11 16  1  0  0  0  0
 11  9  1  0  0  0  0
 12 11  2  0  0  0  0
 13 14  2  0  0  0  0
 13 12  1  0  0  0  0
 14 15  1  0  0  0  0
 15 16  2  0  0  0  0
 17 18  1  0  0  0  0
 17  5  1  0  0  0  0
M  END
>  <MODEL>
6

>  <REMARK>
 VINA RESULT:      -4.1     10.824     12.770
  Name = ox3_orig_f8_ligand
  5 active torsions:
  status: ('A' for Active; 'I' for Inactive)
    1  A    between atoms: C_1  and  O_2
    2  A    between atoms: O_2  and  C_3
    3  A    between atoms: C_6  and  C_7
    4  A    between atoms: C_7  and  C_9
    5  A    between atoms: C_15  and  O_16
                            x       y       z     vdW  Elec       q    Type
                         _______ _______ _______ _____ _____    ______ ____

>  <TORSDO>
F 4

$$$$
ox3_orig_f8_ligand
 OpenBabel10092621223D

 18 19  0  0  0  0  0  0  0  0999 V2000
  -10.9280    7.2570   -6.8780 C   0  0  0  0  0  0  0  0  0  0  0  0
  -11.0770    8.6030   -6.5400 C   0  0  0  0  0  3  0  0  0  0  0  0
  -11.5460    8.9550   -5.2840 C   0  0  0  0  0  3  0  0  0  0  0  0
  -11.8660    7.9740   -4.3500 C   0  0  0  0  0  0  0  0  0  0  0  0
  -11.7210    6.6320   -4.7020 C   0  0  0  0  0  0  0  0  0  0  0  0
  -11.2540    6.2880   -5.9640 C   0  0  0  0  0  3  0  0  0  0  0  0
  -10.4930    5.4720   -8.4660 C   0  0  0  0  0  1  0  0  0  0  0  0
  -10.4650    6.8540   -8.1060 O   0  0  0  0  0  0  0  0  0  0  0  0
  -12.3840    8.3410   -2.9890 C   0  0  0  0  0  0  0  0  0  0  0  0
  -13.4250    7.8490   -2.6220 O   0  0  0  0  0  0  0  0  0  0  0  0
  -11.6870    9.3050   -2.1020 C   0  0  0  0  0  0  0  0  0  0  0  0
  -10.3600    9.1260   -1.7370 C   0  0  0  0  0  3  0  0  0  0  0  0
   -9.7490   10.0230   -0.8800 C   0  0  0  0  0  3  0  0  0  0  0  0
  -10.4250   11.1340   -0.4170 C   0  0  0  0  0  3  0  0  0  0  0  0
  -11.7540   11.3130   -0.7630 C   0  0  0  0  0  3  0  0  0  0  0  0
  -12.3970   10.3900   -1.5890 C   0  0  0  0  0  3  0  0  0  0  0  0
  -12.0550    5.6640   -3.8020 O   0  0  0  0  0  0  0  0  0  0  0  0
  -12.8850    5.7490   -3.2700 H   0  0  0  0  0  0  0  0  0  0  0  0
  1  2  2  0  0  0  0
  1  6  1  0  0  0  0
  2  3  1  0  0  0  0
  3  4  2  0  0  0  0
  4  9  1  0  0  0  0
  5  4  1  0  0  0  0
  5 17  1  0  0  0  0
  6  5  2  0  0  0  0
  7  8  1  0  0  0  0
  8  1  1  0  0  0  0
  9 10  2  0  0  0  0
  9 11  1  0  0  0  0
 11 12  2  0  0  0  0
 11 16  1  0  0  0  0
 12 13  1  0  0  0  0
 13 14  2  0  0  0  0
 15 14  1  0  0  0  0
 16 15  2  0  0  0  0
 17 18  1  0  0  0  0
M  END
>  <MODEL>
7

>  <REMARK>
 VINA RESULT:      -4.0      1.164      1.432
  Name = ox3_orig_f8_ligand
  5 active torsions:
  status: ('A' for Active; 'I' for Inactive)
    1  A    between atoms: C_1  and  O_2
    2  A    between atoms: O_2  and  C_3
    3  A    between atoms: C_6  and  C_7
    4  A    between atoms: C_7  and  C_9
    5  A    between atoms: C_15  and  O_16
                            x       y       z     vdW  Elec       q    Type
                         _______ _______ _______ _____ _____    ______ ____

>  <TORSDO>
F 4

$$$$
ox3_orig_f8_ligand
 OpenBabel10092621223D

 18 19  0  0  0  0  0  0  0  0999 V2000
   -5.6940   10.3380    2.6280 C   0  0  0  0  0  0  0  0  0  0  0  0
   -7.0380   10.0930    2.9160 C   0  0  0  0  0  3  0  0  0  0  0  0
   -8.0270   10.5770    2.0750 C   0  0  0  0  0  3  0  0  0  0  0  0
   -7.6920   11.3030    0.9370 C   0  0  0  0  0  0  0  0  0  0  0  0
   -6.3470   11.5500    0.6630 C   0  0  0  0  0  0  0  0  0  0  0  0
   -5.3610   11.0640    1.5130 C   0  0  0  0  0  3  0  0  0  0  0  0
   -4.1430    8.5690    3.2290 C   0  0  0  0  0  1  0  0  0  0  0  0
   -4.6750    9.8800    3.4250 O   0  0  0  0  0  0  0  0  0  0  0  0
   -8.7550   11.8410    0.0210 C   0  0  0  0  0  0  0  0  0  0  0  0
   -8.7390   13.0210   -0.2410 O   0  0  0  0  0  0  0  0  0  0  0  0
   -9.8340   10.9900   -0.5370 C   0  0  0  0  0  0  0  0  0  0  0  0
  -11.1730   11.2940   -0.3380 C   0  0  0  0  0  3  0  0  0  0  0  0
  -12.1560   10.4610   -0.8410 C   0  0  0  0  0  3  0  0  0  0  0  0
  -11.8280    9.3490   -1.5900 C   0  0  0  0  0  3  0  0  0  0  0  0
  -10.4940    9.0290   -1.7820 C   0  0  0  0  0  3  0  0  0  0  0  0
   -9.4920    9.8350   -1.2400 C   0  0  0  0  0  3  0  0  0  0  0  0
   -6.0110   12.2810   -0.4370 O   0  0  0  0  0  0  0  0  0  0  0  0
   -6.0390   11.8660   -1.3350 H   0  0  0  0  0  0  0  0  0  0  0  0
  1  2  1  0  0  0  0
  1  8  1  0  0  0  0
  3  2  2  0  0  0  0
  4  3  1  0  0  0  0
  5  4  2  0  0  0  0
  5  6  1  0  0  0  0
  6  1  2  0  0  0  0
  7  8  1  0  0  0  0
  9  4  1  0  0  0  0
 10  9  2  0  0  0  0
 11 12  1  0  0  0  0
 11  9  1  0  0  0  0
 13 12  2  0  0  0  0
 14 13  1  0  0  0  0
 15 14  2  0  0  0  0
 15 16  1  0  0  0  0
 16 11  2  0  0  0  0
 17  5  1  0  0  0  0
 18 17  1  0  0  0  0
M  END
>  <MODEL>
8

>  <REMARK>
 VINA RESULT:      -3.9      4.366      7.671
  Name = ox3_orig_f8_ligand
  5 active torsions:
  status: ('A' for Active; 'I' for Inactive)
    1  A    between atoms: C_1  and  O_2
    2  A    between atoms: O_2  and  C_3
    3  A    between atoms: C_6  and  C_7
    4  A    between atoms: C_7  and  C_9
    5  A    between atoms: C_15  and  O_16
                            x       y       z     vdW  Elec       q    Type
                         _______ _______ _______ _____ _____    ______ ____

>  <TORSDO>
F 4

$$$$
ox3_orig_f8_ligand
 OpenBabel10092621223D

 18 19  0  0  0  0  0  0  0  0999 V2000
  -14.2000    5.6680   -0.1030 C   0  0  0  0  0  0  0  0  0  0  0  0
  -14.5820    6.9670    0.2360 C   0  0  0  0  0  3  0  0  0  0  0  0
  -13.9830    8.0510   -0.3870 C   0  0  0  0  0  3  0  0  0  0  0  0
  -13.0030    7.8550   -1.3550 C   0  0  0  0  0  0  0  0  0  0  0  0
  -12.6230    6.5530   -1.6790 C   0  0  0  0  0  0  0  0  0  0  0  0
  -13.2260    5.4720   -1.0480 C   0  0  0  0  0  3  0  0  0  0  0  0
  -14.0750    3.8710    1.5260 C   0  0  0  0  0  1  0  0  0  0  0  0
  -14.7630    4.5600    0.4810 O   0  0  0  0  0  0  0  0  0  0  0  0
  -12.3390    9.0210   -2.0310 C   0  0  0  0  0  0  0  0  0  0  0  0
  -12.6470    9.2690   -3.1730 O   0  0  0  0  0  0  0  0  0  0  0  0
  -11.3020    9.8460   -1.3650 C   0  0  0  0  0  0  0  0  0  0  0  0
  -11.6370   10.9720   -0.6250 C   0  0  0  0  0  3  0  0  0  0  0  0
  -10.6450   11.7410   -0.0440 C   0  0  0  0  0  3  0  0  0  0  0  0
   -9.3160   11.3790   -0.1460 C   0  0  0  0  0  3  0  0  0  0  0  0
   -8.9710   10.2660   -0.8950 C   0  0  0  0  0  3  0  0  0  0  0  0
   -9.9590    9.5070   -1.5240 C   0  0  0  0  0  3  0  0  0  0  0  0
  -11.6460    6.3520   -2.6080 O   0  0  0  0  0  0  0  0  0  0  0  0
  -10.9240    5.6980   -2.4330 H   0  0  0  0  0  0  0  0  0  0  0  0
  1  2  1  0  0  0  0
  1  8  1  0  0  0  0
  3  2  2  0  0  0  0
  4  3  1  0  0  0  0
  5  4  2  0  0  0  0
  5  6  1  0  0  0  0
  6  1  2  0  0  0  0
  8  7  1  0  0  0  0
  9 11  1  0  0  0  0
  9  4  1  0  0  0  0
 10  9  2  0  0  0  0
 11 12  1  0  0  0  0
 12 13  2  0  0  0  0
 14 13  1  0  0  0  0
 15 14  2  0  0  0  0
 16 11  2  0  0  0  0
 16 15  1  0  0  0  0
 17 18  1  0  0  0  0
 17  5  1  0  0  0  0
M  END
>  <MODEL>
9

>  <REMARK>
 VINA RESULT:      -3.9      2.529      4.300
  Name = ox3_orig_f8_ligand
  5 active torsions:
  status: ('A' for Active; 'I' for Inactive)
    1  A    between atoms: C_1  and  O_2
    2  A    between atoms: O_2  and  C_3
    3  A    between atoms: C_6  and  C_7
    4  A    between atoms: C_7  and  C_9
    5  A    between atoms: C_15  and  O_16
                            x       y       z     vdW  Elec       q    Type
                         _______ _______ _______ _____ _____    ______ ____

>  <TORSDO>
F 4

$$$$
