bg33_4_ligand
     RDKit          3D

 44 44  0  0  0  0  0  0  0  0999 V2000
   -3.2113   -1.8404   -7.2009 C   0  0  0  0  0  0  0  0  0  0  0  0
   -2.2531   -1.8471   -8.3603 C   0  0  0  0  0  0  0  0  0  0  0  0
   -1.3060   -3.0449   -8.3609 C   0  0  0  0  0  0  0  0  0  0  0  0
   -0.2271   -2.9204   -9.4061 C   0  0  0  0  0  0  0  0  0  0  0  0
    0.4664   -4.3383   -9.6604 C   0  0  1  0  0  0  0  0  0  0  0  0
    2.0033   -4.2811   -9.9000 C   0  0  0  0  0  0  0  0  0  0  0  0
    2.3440   -3.8341  -11.3589 C   0  0  0  0  0  0  0  0  0  0  0  0
    0.4035   -5.0877   -8.4946 O   0  0  0  0  0  0  0  0  0  0  0  0
    0.2061   -6.5373   -8.5805 C   0  0  0  0  0  0  0  0  0  0  0  0
    0.4125   -7.1475   -9.6730 O   0  0  0  0  0  0  0  0  0  0  0  0
   -0.0907   -7.2254   -7.3142 C   0  0  0  0  0  0  0  0  0  0  0  0
   -0.4939   -6.4278   -6.1919 C   0  0  0  0  0  0  0  0  0  0  0  0
   -0.7136   -7.0584   -4.8259 C   0  0  0  0  0  0  0  0  0  0  0  0
   -1.1587   -8.3534   -4.6676 C   0  0  0  0  0  0  0  0  0  0  0  0
   -1.3526   -8.9231   -3.3621 C   0  0  0  0  0  0  0  0  0  0  0  0
   -1.0792   -8.1995   -2.1878 C   0  0  0  0  0  0  0  0  0  0  0  0
   -1.1912   -8.7114   -0.9103 O   0  0  0  0  0  0  0  0  0  0  0  0
   -1.5662  -10.1029   -0.7506 C   0  0  0  0  0  0  0  0  0  0  0  0
   -0.6147   -6.9000   -2.3762 C   0  0  0  0  0  0  0  0  0  0  0  0
   -0.4220   -6.3513   -3.6510 C   0  0  0  0  0  0  0  0  0  0  0  0
   -4.2391   -1.7245   -7.5754 H   0  0  0  0  0  0  0  0  0  0  0  0
   -3.1265   -2.7886   -6.6498 H   0  0  0  0  0  0  0  0  0  0  0  0
   -2.9690   -1.0033   -6.5298 H   0  0  0  0  0  0  0  0  0  0  0  0
   -2.8356   -1.8634   -9.2933 H   0  0  0  0  0  0  0  0  0  0  0  0
   -1.6320   -0.9435   -8.2719 H   0  0  0  0  0  0  0  0  0  0  0  0
   -0.8323   -3.1218   -7.3710 H   0  0  0  0  0  0  0  0  0  0  0  0
   -1.8983   -3.9421   -8.5938 H   0  0  0  0  0  0  0  0  0  0  0  0
   -0.6720   -2.5605  -10.3455 H   0  0  0  0  0  0  0  0  0  0  0  0
    0.5333   -2.2090   -9.0519 H   0  0  0  0  0  0  0  0  0  0  0  0
   -0.0617   -4.7368  -10.5391 H   0  0  0  0  0  0  0  0  0  0  0  0
    2.4479   -3.5639   -9.1944 H   0  0  0  0  0  0  0  0  0  0  0  0
    2.4125   -5.2905   -9.7459 H   0  0  0  0  0  0  0  0  0  0  0  0
    1.4323   -3.8638  -11.9737 H   0  0  0  0  0  0  0  0  0  0  0  0
    2.7435   -2.8095  -11.3446 H   0  0  0  0  0  0  0  0  0  0  0  0
    3.0957   -4.5150  -11.7849 H   0  0  0  0  0  0  0  0  0  0  0  0
   -0.0061   -8.3188   -7.2305 H   0  0  0  0  0  0  0  0  0  0  0  0
   -0.6462   -5.3461   -6.3214 H   0  0  0  0  0  0  0  0  0  0  0  0
   -1.3699   -8.9633   -5.5583 H   0  0  0  0  0  0  0  0  0  0  0  0
   -1.7256   -9.9546   -3.2794 H   0  0  0  0  0  0  0  0  0  0  0  0
   -2.2365  -10.3985   -1.5711 H   0  0  0  0  0  0  0  0  0  0  0  0
   -0.6631  -10.7306   -0.7706 H   0  0  0  0  0  0  0  0  0  0  0  0
   -2.0836  -10.2351    0.2111 H   0  0  0  0  0  0  0  0  0  0  0  0
   -0.3913   -6.2829   -1.4933 H   0  0  0  0  0  0  0  0  0  0  0  0
   -0.0273   -5.3280   -3.7330 H   0  0  0  0  0  0  0  0  0  0  0  0
  2  1  1  0
  3  2  1  0
  4  3  1  0
  5  4  1  0
  6  5  1  0
  7  6  1  0
  8  5  1  0
  9  8  1  0
 10  9  2  0
 11  9  1  0
 12 11  2  3
 13 12  1  0
 14 13  1  0
 15 14  2  0
 16 15  1  0
 17 16  1  0
 18 17  1  0
 19 16  2  0
 20 19  1  0
 20 13  2  0
  1 21  1  0
  1 22  1  0
  1 23  1  0
  2 24  1  0
  2 25  1  0
  3 26  1  0
  3 27  1  0
  4 28  1  0
  4 29  1  0
  5 30  1  6
  6 31  1  0
  6 32  1  0
  7 33  1  0
  7 34  1  0
  7 35  1  0
 11 36  1  0
 12 37  1  0
 14 38  1  0
 15 39  1  0
 18 40  1  0
 18 41  1  0
 18 42  1  0
 19 43  1  0
 20 44  1  0
M  END
$$$$
