bg33_1_ligand
     RDKit          3D

 44 44  0  0  0  0  0  0  0  0999 V2000
    4.1676   -2.8408    1.7292 C   0  0  0  0  0  0  0  0  0  0  0  0
    3.7830   -3.4658    3.0515 C   0  0  0  0  0  0  0  0  0  0  0  0
    2.9384   -4.6222    2.8279 C   0  0  0  0  0  0  0  0  0  0  0  0
    1.6417   -4.0509    2.7556 C   0  0  0  0  0  0  0  0  0  0  0  0
    0.6949   -4.8744    2.1278 C   0  0  2  0  0  0  0  0  0  0  0  0
   -0.3090   -5.5720    2.9814 C   0  0  0  0  0  0  0  0  0  0  0  0
    0.1936   -6.7319    3.6111 C   0  0  0  0  0  0  0  0  0  0  0  0
    1.1424   -5.6187    1.2134 O   0  0  0  0  0  0  0  0  0  0  0  0
    0.2368   -5.9375    0.3521 C   0  0  0  0  0  0  0  0  0  0  0  0
   -0.8615   -5.4554    0.4282 O   0  0  0  0  0  0  0  0  0  0  0  0
    0.5598   -6.8489   -0.6719 C   0  0  0  0  0  0  0  0  0  0  0  0
   -0.3258   -7.6648   -1.0337 C   0  0  0  0  0  0  0  0  0  0  0  0
   -0.1136   -8.7086   -1.9078 C   0  0  0  0  0  0  0  0  0  0  0  0
    0.3607   -8.5019   -3.1446 C   0  0  0  0  0  0  0  0  0  0  0  0
    0.5739   -9.5171   -4.0182 C   0  0  0  0  0  0  0  0  0  0  0  0
    0.3202  -10.7818   -3.5747 C   0  0  0  0  0  0  0  0  0  0  0  0
    0.4941  -11.8114   -4.3690 O   0  0  0  0  0  0  0  0  0  0  0  0
    1.3740  -12.7603   -3.8719 C   0  0  0  0  0  0  0  0  0  0  0  0
   -0.1350  -11.0405   -2.3664 C   0  0  0  0  0  0  0  0  0  0  0  0
   -0.3779   -9.9991   -1.5377 C   0  0  0  0  0  0  0  0  0  0  0  0
    5.1905   -2.4416    1.7960 H   0  0  0  0  0  0  0  0  0  0  0  0
    4.1222   -3.6023    0.9368 H   0  0  0  0  0  0  0  0  0  0  0  0
    3.4699   -2.0238    1.4931 H   0  0  0  0  0  0  0  0  0  0  0  0
    4.6930   -3.7774    3.5853 H   0  0  0  0  0  0  0  0  0  0  0  0
    3.2316   -2.7276    3.6522 H   0  0  0  0  0  0  0  0  0  0  0  0
    3.2013   -5.1299    1.8881 H   0  0  0  0  0  0  0  0  0  0  0  0
    3.0343   -5.3909    3.6089 H   0  0  0  0  0  0  0  0  0  0  0  0
    1.2965   -3.8434    3.7793 H   0  0  0  0  0  0  0  0  0  0  0  0
    1.7267   -3.1385    2.1472 H   0  0  0  0  0  0  0  0  0  0  0  0
    0.1013   -4.0894    1.6364 H   0  0  0  0  0  0  0  0  0  0  0  0
   -0.6493   -4.8732    3.7597 H   0  0  0  0  0  0  0  0  0  0  0  0
   -1.1276   -5.8926    2.3203 H   0  0  0  0  0  0  0  0  0  0  0  0
    1.2139   -6.5392    3.9740 H   0  0  0  0  0  0  0  0  0  0  0  0
   -0.4535   -6.9978    4.4601 H   0  0  0  0  0  0  0  0  0  0  0  0
    0.2117   -7.5622    2.8897 H   0  0  0  0  0  0  0  0  0  0  0  0
    1.5551   -6.8469   -1.1403 H   0  0  0  0  0  0  0  0  0  0  0  0
   -1.3387   -7.5366   -0.6245 H   0  0  0  0  0  0  0  0  0  0  0  0
    0.5848   -7.4727   -3.4619 H   0  0  0  0  0  0  0  0  0  0  0  0
    0.9358   -9.3289   -5.0398 H   0  0  0  0  0  0  0  0  0  0  0  0
    2.3255  -12.2756   -3.6079 H   0  0  0  0  0  0  0  0  0  0  0  0
    0.9403  -13.2290   -2.9761 H   0  0  0  0  0  0  0  0  0  0  0  0
    1.5544  -13.5296   -4.6372 H   0  0  0  0  0  0  0  0  0  0  0  0
   -0.3128  -12.0757   -2.0395 H   0  0  0  0  0  0  0  0  0  0  0  0
   -0.7990  -10.1949   -0.5406 H   0  0  0  0  0  0  0  0  0  0  0  0
  2  1  1  0
  3  2  1  0
  4  3  1  0
  5  4  1  0
  6  5  1  0
  7  6  1  0
  8  5  1  0
  9  8  1  0
 10  9  2  0
 11  9  1  0
 12 11  2  3
 13 12  1  0
 14 13  1  0
 15 14  2  0
 16 15  1  0
 17 16  1  0
 18 17  1  0
 19 16  2  0
 20 13  2  0
 20 19  1  0
  1 21  1  0
  1 22  1  0
  1 23  1  0
  2 24  1  0
  2 25  1  0
  3 26  1  0
  3 27  1  0
  4 28  1  0
  4 29  1  0
  5 30  1  6
  6 31  1  0
  6 32  1  0
  7 33  1  0
  7 34  1  0
  7 35  1  0
 11 36  1  0
 12 37  1  0
 14 38  1  0
 15 39  1  0
 18 40  1  0
 18 41  1  0
 18 42  1  0
 19 43  1  0
 20 44  1  0
M  END
$$$$
