bg33_3_ligand
     RDKit          3D

 44 44  0  0  0  0  0  0  0  0999 V2000
   -5.4149    0.6362   -4.6074 C   0  0  0  0  0  0  0  0  0  0  0  0
   -5.9710   -0.7500   -4.2154 C   0  0  0  0  0  0  0  0  0  0  0  0
   -5.4753   -1.0935   -2.8469 C   0  0  0  0  0  0  0  0  0  0  0  0
   -5.5932   -2.5993   -2.5240 C   0  0  0  0  0  0  0  0  0  0  0  0
   -4.8046   -2.8579   -1.2528 C   0  0  1  0  0  0  0  0  0  0  0  0
   -5.7014   -2.8931   -0.1052 C   0  0  0  0  0  0  0  0  0  0  0  0
   -5.9466   -4.2761    0.4190 C   0  0  0  0  0  0  0  0  0  0  0  0
   -4.0990   -4.1370   -1.3307 O   0  0  0  0  0  0  0  0  0  0  0  0
   -2.9521   -4.1377   -1.8633 C   0  0  0  0  0  0  0  0  0  0  0  0
   -2.6597   -3.1869   -2.5508 O   0  0  0  0  0  0  0  0  0  0  0  0
   -1.9721   -5.3412   -1.6608 C   0  0  0  0  0  0  0  0  0  0  0  0
   -1.1082   -5.3090   -0.6205 C   0  0  0  0  0  0  0  0  0  0  0  0
   -0.1100   -6.3287   -0.4230 C   0  0  0  0  0  0  0  0  0  0  0  0
    0.9715   -6.4428   -1.2679 C   0  0  0  0  0  0  0  0  0  0  0  0
    1.9447   -7.3552   -1.0749 C   0  0  0  0  0  0  0  0  0  0  0  0
    1.8403   -8.2002    0.0061 C   0  0  0  0  0  0  0  0  0  0  0  0
    2.7512   -9.1667    0.2490 O   0  0  0  0  0  0  0  0  0  0  0  0
    4.0343   -8.9587   -0.3148 C   0  0  0  0  0  0  0  0  0  0  0  0
    0.7678   -8.1394    0.8411 C   0  0  0  0  0  0  0  0  0  0  0  0
   -0.2087   -7.1904    0.6274 C   0  0  0  0  0  0  0  0  0  0  0  0
   -4.3374    0.6741   -4.3895 H   0  0  0  0  0  0  0  0  0  0  0  0
   -5.5780    0.8063   -5.6818 H   0  0  0  0  0  0  0  0  0  0  0  0
   -5.9332    1.4159   -4.0299 H   0  0  0  0  0  0  0  0  0  0  0  0
   -7.0706   -0.7215   -4.2149 H   0  0  0  0  0  0  0  0  0  0  0  0
   -5.6344   -1.5079   -4.9381 H   0  0  0  0  0  0  0  0  0  0  0  0
   -4.4176   -0.8007   -2.7733 H   0  0  0  0  0  0  0  0  0  0  0  0
   -6.1021   -0.5512   -2.1238 H   0  0  0  0  0  0  0  0  0  0  0  0
   -6.6489   -2.8691   -2.3722 H   0  0  0  0  0  0  0  0  0  0  0  0
   -5.1994   -3.2049   -3.3535 H   0  0  0  0  0  0  0  0  0  0  0  0
   -4.0744   -2.0432   -1.1380 H   0  0  0  0  0  0  0  0  0  0  0  0
   -5.2598   -2.2885    0.7006 H   0  0  0  0  0  0  0  0  0  0  0  0
   -6.6714   -2.4969   -0.4399 H   0  0  0  0  0  0  0  0  0  0  0  0
   -5.0007   -4.7034    0.7831 H   0  0  0  0  0  0  0  0  0  0  0  0
   -6.6712   -4.2318    1.2457 H   0  0  0  0  0  0  0  0  0  0  0  0
   -6.3482   -4.9079   -0.3870 H   0  0  0  0  0  0  0  0  0  0  0  0
   -1.9856   -6.1972   -2.3515 H   0  0  0  0  0  0  0  0  0  0  0  0
   -1.1697   -4.4778    0.0974 H   0  0  0  0  0  0  0  0  0  0  0  0
    1.0436   -5.7650   -2.1312 H   0  0  0  0  0  0  0  0  0  0  0  0
    2.7998   -7.4224   -1.7635 H   0  0  0  0  0  0  0  0  0  0  0  0
    4.7901   -9.4792    0.2916 H   0  0  0  0  0  0  0  0  0  0  0  0
    4.0522   -9.3535   -1.3413 H   0  0  0  0  0  0  0  0  0  0  0  0
    4.2568   -7.8815   -0.3323 H   0  0  0  0  0  0  0  0  0  0  0  0
    0.6806   -8.8434    1.6818 H   0  0  0  0  0  0  0  0  0  0  0  0
   -1.0711   -7.1288    1.3075 H   0  0  0  0  0  0  0  0  0  0  0  0
  2  1  1  0
  3  2  1  0
  4  3  1  0
  5  4  1  0
  6  5  1  0
  7  6  1  0
  8  5  1  0
  9  8  1  0
 10  9  2  0
 11  9  1  0
 12 11  2  3
 13 12  1  0
 14 13  1  0
 15 14  2  0
 16 15  1  0
 17 16  1  0
 18 17  1  0
 19 16  2  0
 20 19  1  0
 20 13  2  0
  1 21  1  0
  1 22  1  0
  1 23  1  0
  2 24  1  0
  2 25  1  0
  3 26  1  0
  3 27  1  0
  4 28  1  0
  4 29  1  0
  5 30  1  1
  6 31  1  0
  6 32  1  0
  7 33  1  0
  7 34  1  0
  7 35  1  0
 11 36  1  0
 12 37  1  0
 14 38  1  0
 15 39  1  0
 18 40  1  0
 18 41  1  0
 18 42  1  0
 19 43  1  0
 20 44  1  0
M  END
$$$$
