s2_esm2_control_ligand
     RDKit          3D

 44 44  0  0  0  0  0  0  0  0999 V2000
  -16.7833   -3.3257   -0.1753 C   0  0  0  0  0  0  0  0  0  0  0  0
  -16.2959   -3.6930    1.2217 C   0  0  0  0  0  0  0  0  0  0  0  0
  -15.1139   -4.6141    1.1570 C   0  0  0  0  0  0  0  0  0  0  0  0
  -14.5603   -4.9168    2.5147 C   0  0  0  0  0  0  0  0  0  0  0  0
  -13.4106   -5.8946    2.5042 C   0  0  2  0  0  0  0  0  0  0  0  0
  -12.7812   -5.9692    3.8936 C   0  0  0  0  0  0  0  0  0  0  0  0
  -12.7881   -7.3582    4.5076 C   0  0  0  0  0  0  0  0  0  0  0  0
  -12.4228   -5.4600    1.5857 O   0  0  0  0  0  0  0  0  0  0  0  0
  -12.1726   -6.1967    0.4838 C   0  0  0  0  0  0  0  0  0  0  0  0
  -12.7476   -7.2345    0.2898 O   0  0  0  0  0  0  0  0  0  0  0  0
  -11.1733   -5.6250   -0.4545 C   0  0  0  0  0  0  0  0  0  0  0  0
  -10.9032   -6.3007   -1.6067 C   0  0  0  0  0  0  0  0  0  0  0  0
   -9.9642   -5.8138   -2.6367 C   0  0  0  0  0  0  0  0  0  0  0  0
   -9.7392   -6.6117   -3.7437 C   0  0  0  0  0  0  0  0  0  0  0  0
   -8.8825   -6.2003   -4.7478 C   0  0  0  0  0  0  0  0  0  0  0  0
   -8.2409   -4.9923   -4.6620 C   0  0  0  0  0  0  0  0  0  0  0  0
   -7.4157   -4.6348   -5.6739 O   0  0  0  0  0  0  0  0  0  0  0  0
   -6.8053   -3.3507   -5.6708 C   0  0  0  0  0  0  0  0  0  0  0  0
   -8.4638   -4.1933   -3.5632 C   0  0  0  0  0  0  0  0  0  0  0  0
   -9.3233   -4.6076   -2.5533 C   0  0  0  0  0  0  0  0  0  0  0  0
  -17.8282   -2.9863   -0.1217 H   0  0  0  0  0  0  0  0  0  0  0  0
  -16.1562   -2.5188   -0.5823 H   0  0  0  0  0  0  0  0  0  0  0  0
  -16.7173   -4.2071   -0.8301 H   0  0  0  0  0  0  0  0  0  0  0  0
  -16.0070   -2.7749    1.7543 H   0  0  0  0  0  0  0  0  0  0  0  0
  -17.1109   -4.2075    1.7519 H   0  0  0  0  0  0  0  0  0  0  0  0
  -15.4244   -5.5566    0.6823 H   0  0  0  0  0  0  0  0  0  0  0  0
  -14.3264   -4.1140    0.5740 H   0  0  0  0  0  0  0  0  0  0  0  0
  -14.2100   -3.9755    2.9634 H   0  0  0  0  0  0  0  0  0  0  0  0
  -15.3711   -5.3849    3.0923 H   0  0  0  0  0  0  0  0  0  0  0  0
  -13.7902   -6.8844    2.2105 H   0  0  0  0  0  0  0  0  0  0  0  0
  -11.7373   -5.6309    3.8178 H   0  0  0  0  0  0  0  0  0  0  0  0
  -13.3901   -5.3307    4.5506 H   0  0  0  0  0  0  0  0  0  0  0  0
  -13.6368   -7.4482    5.2015 H   0  0  0  0  0  0  0  0  0  0  0  0
  -12.8843   -8.1107    3.7111 H   0  0  0  0  0  0  0  0  0  0  0  0
  -11.8481   -7.5218    5.0551 H   0  0  0  0  0  0  0  0  0  0  0  0
  -10.6630   -4.6781   -0.2247 H   0  0  0  0  0  0  0  0  0  0  0  0
  -11.4122   -7.2606   -1.7785 H   0  0  0  0  0  0  0  0  0  0  0  0
  -10.2471   -7.5839   -3.8262 H   0  0  0  0  0  0  0  0  0  0  0  0
   -8.7148   -6.8470   -5.6215 H   0  0  0  0  0  0  0  0  0  0  0  0
   -7.4278   -2.6502   -5.0949 H   0  0  0  0  0  0  0  0  0  0  0  0
   -5.8087   -3.4196   -5.2101 H   0  0  0  0  0  0  0  0  0  0  0  0
   -6.7069   -2.9889   -6.7049 H   0  0  0  0  0  0  0  0  0  0  0  0
   -7.9578   -3.2199   -3.4843 H   0  0  0  0  0  0  0  0  0  0  0  0
   -9.4900   -3.9607   -1.6795 H   0  0  0  0  0  0  0  0  0  0  0  0
  2  1  1  0
  3  2  1  0
  4  3  1  0
  5  4  1  0
  6  5  1  0
  7  6  1  0
  8  5  1  0
  9  8  1  0
 10  9  2  0
 11  9  1  0
 12 11  2  3
 13 12  1  0
 14 13  1  0
 15 14  2  0
 16 15  1  0
 17 16  1  0
 18 17  1  0
 19 16  2  0
 20 19  1  0
 20 13  2  0
  1 21  1  0
  1 22  1  0
  1 23  1  0
  2 24  1  0
  2 25  1  0
  3 26  1  0
  3 27  1  0
  4 28  1  0
  4 29  1  0
  5 30  1  6
  6 31  1  0
  6 32  1  0
  7 33  1  0
  7 34  1  0
  7 35  1  0
 11 36  1  0
 12 37  1  0
 14 38  1  0
 15 39  1  0
 18 40  1  0
 18 41  1  0
 18 42  1  0
 19 43  1  0
 20 44  1  0
M  END
$$$$
