s3_esm2_f4_ligand
     RDKit          3D

 44 44  0  0  0  0  0  0  0  0999 V2000
   -3.4150   -9.8069   12.1794 C   0  0  0  0  0  0  0  0  0  0  0  0
   -1.8947   -9.8068   11.9903 C   0  0  0  0  0  0  0  0  0  0  0  0
   -1.5191   -9.0863   10.7199 C   0  0  0  0  0  0  0  0  0  0  0  0
   -0.0346   -9.1353   10.4907 C   0  0  0  0  0  0  0  0  0  0  0  0
    0.3294   -8.6744    9.0862 C   0  0  2  0  0  0  0  0  0  0  0  0
    1.4203   -9.5599    8.5320 C   0  0  0  0  0  0  0  0  0  0  0  0
    2.4760   -8.8328    7.7532 C   0  0  0  0  0  0  0  0  0  0  0  0
    0.7713   -7.3303    9.1367 O   0  0  0  0  0  0  0  0  0  0  0  0
   -0.0250   -6.3528    8.6315 C   0  0  0  0  0  0  0  0  0  0  0  0
   -1.1819   -6.5470    8.3737 O   0  0  0  0  0  0  0  0  0  0  0  0
    0.6385   -5.0725    8.4037 C   0  0  0  0  0  0  0  0  0  0  0  0
    1.8229   -4.8119    8.9440 C   0  0  0  0  0  0  0  0  0  0  0  0
    2.6372   -3.6295    8.5881 C   0  0  0  0  0  0  0  0  0  0  0  0
    2.3352   -2.8575    7.4847 C   0  0  0  0  0  0  0  0  0  0  0  0
    3.1348   -1.7778    7.1573 C   0  0  0  0  0  0  0  0  0  0  0  0
    4.2264   -1.4624    7.9098 C   0  0  0  0  0  0  0  0  0  0  0  0
    4.9892   -0.4066    7.5518 O   0  0  0  0  0  0  0  0  0  0  0  0
    6.2914   -0.2601    8.0939 C   0  0  0  0  0  0  0  0  0  0  0  0
    4.5256   -2.2285    9.0176 C   0  0  0  0  0  0  0  0  0  0  0  0
    3.7288   -3.3051    9.3484 C   0  0  0  0  0  0  0  0  0  0  0  0
   -3.6595   -9.4306   13.1838 H   0  0  0  0  0  0  0  0  0  0  0  0
   -3.8788   -9.1581   11.4218 H   0  0  0  0  0  0  0  0  0  0  0  0
   -3.7982  -10.8320   12.0685 H   0  0  0  0  0  0  0  0  0  0  0  0
   -1.4238   -9.3008   12.8459 H   0  0  0  0  0  0  0  0  0  0  0  0
   -1.5450  -10.8476   11.9250 H   0  0  0  0  0  0  0  0  0  0  0  0
   -2.0300   -9.5640    9.8709 H   0  0  0  0  0  0  0  0  0  0  0  0
   -1.8247   -8.0335   10.8111 H   0  0  0  0  0  0  0  0  0  0  0  0
    0.4616   -8.4800   11.2216 H   0  0  0  0  0  0  0  0  0  0  0  0
    0.2982  -10.1770   10.6089 H   0  0  0  0  0  0  0  0  0  0  0  0
   -0.5518   -8.7412    8.4310 H   0  0  0  0  0  0  0  0  0  0  0  0
    1.9072  -10.0734    9.3743 H   0  0  0  0  0  0  0  0  0  0  0  0
    0.9343  -10.2527    7.8292 H   0  0  0  0  0  0  0  0  0  0  0  0
    3.1074   -8.2541    8.4433 H   0  0  0  0  0  0  0  0  0  0  0  0
    3.0975   -9.5602    7.2102 H   0  0  0  0  0  0  0  0  0  0  0  0
    1.9974   -8.1509    7.0348 H   0  0  0  0  0  0  0  0  0  0  0  0
    0.1502   -4.3130    7.7753 H   0  0  0  0  0  0  0  0  0  0  0  0
    2.2190   -5.5113    9.6951 H   0  0  0  0  0  0  0  0  0  0  0  0
    1.4589   -3.1008    6.8660 H   0  0  0  0  0  0  0  0  0  0  0  0
    2.8864   -1.1655    6.2779 H   0  0  0  0  0  0  0  0  0  0  0  0
    6.2222    0.1747    9.1020 H   0  0  0  0  0  0  0  0  0  0  0  0
    6.7773   -1.2453    8.1521 H   0  0  0  0  0  0  0  0  0  0  0  0
    6.8849    0.4038    7.4481 H   0  0  0  0  0  0  0  0  0  0  0  0
    5.4000   -1.9808    9.6373 H   0  0  0  0  0  0  0  0  0  0  0  0
    3.9734   -3.9103   10.2338 H   0  0  0  0  0  0  0  0  0  0  0  0
  2  1  1  0
  3  2  1  0
  4  3  1  0
  5  4  1  0
  6  5  1  0
  7  6  1  0
  8  5  1  0
  9  8  1  0
 10  9  2  0
 11  9  1  0
 12 11  2  3
 13 12  1  0
 14 13  1  0
 15 14  2  0
 16 15  1  0
 17 16  1  0
 18 17  1  0
 19 16  2  0
 20 19  1  0
 20 13  2  0
  1 21  1  0
  1 22  1  0
  1 23  1  0
  2 24  1  0
  2 25  1  0
  3 26  1  0
  3 27  1  0
  4 28  1  0
  4 29  1  0
  5 30  1  6
  6 31  1  0
  6 32  1  0
  7 33  1  0
  7 34  1  0
  7 35  1  0
 11 36  1  0
 12 37  1  0
 14 38  1  0
 15 39  1  0
 18 40  1  0
 18 41  1  0
 18 42  1  0
 19 43  1  0
 20 44  1  0
M  END
$$$$
