s3_orig_f12_ligand
     RDKit          3D

 44 44  0  0  0  0  0  0  0  0999 V2000
  -12.9430   -3.4336    5.8079 C   0  0  0  0  0  0  0  0  0  0  0  0
  -12.7231   -3.1801    4.3323 C   0  0  0  0  0  0  0  0  0  0  0  0
  -11.2572   -3.0717    3.9989 C   0  0  0  0  0  0  0  0  0  0  0  0
  -11.0112   -2.8526    2.5424 C   0  0  0  0  0  0  0  0  0  0  0  0
   -9.7477   -2.0718    2.2168 C   0  0  2  0  0  0  0  0  0  0  0  0
   -9.3910   -2.2470    0.7523 C   0  0  0  0  0  0  0  0  0  0  0  0
  -10.5321   -1.9293   -0.2077 C   0  0  0  0  0  0  0  0  0  0  0  0
   -8.7363   -2.4399    2.9791 O   0  0  0  0  0  0  0  0  0  0  0  0
   -7.8018   -3.0650    3.4992 C   0  0  0  0  0  0  0  0  0  0  0  0
   -7.4982   -4.1320    3.0312 O   0  0  0  0  0  0  0  0  0  0  0  0
   -7.1552   -2.4619    4.6878 C   0  0  0  0  0  0  0  0  0  0  0  0
   -6.1666   -3.0710    5.3377 C   0  0  0  0  0  0  0  0  0  0  0  0
   -5.5480   -2.5637    6.5885 C   0  0  0  0  0  0  0  0  0  0  0  0
   -4.7592   -3.4126    7.3471 C   0  0  0  0  0  0  0  0  0  0  0  0
   -4.2343   -2.9902    8.5632 C   0  0  0  0  0  0  0  0  0  0  0  0
   -4.4367   -1.7002    9.0087 C   0  0  0  0  0  0  0  0  0  0  0  0
   -3.9210   -1.2325   10.2002 O   0  0  0  0  0  0  0  0  0  0  0  0
   -3.7517   -2.1627   11.2537 C   0  0  0  0  0  0  0  0  0  0  0  0
   -5.1735   -0.8478    8.2297 C   0  0  0  0  0  0  0  0  0  0  0  0
   -5.7289   -1.2763    7.0248 C   0  0  0  0  0  0  0  0  0  0  0  0
  -13.4389   -2.5618    6.2597 H   0  0  0  0  0  0  0  0  0  0  0  0
  -13.5767   -4.3233    5.9366 H   0  0  0  0  0  0  0  0  0  0  0  0
  -11.9733   -3.5997    6.2999 H   0  0  0  0  0  0  0  0  0  0  0  0
  -13.1588   -4.0114    3.7587 H   0  0  0  0  0  0  0  0  0  0  0  0
  -13.2058   -2.2266    4.0719 H   0  0  0  0  0  0  0  0  0  0  0  0
  -10.8307   -2.2262    4.5586 H   0  0  0  0  0  0  0  0  0  0  0  0
  -10.7825   -4.0244    4.2759 H   0  0  0  0  0  0  0  0  0  0  0  0
  -10.9395   -3.8366    2.0562 H   0  0  0  0  0  0  0  0  0  0  0  0
  -11.8520   -2.2457    2.1755 H   0  0  0  0  0  0  0  0  0  0  0  0
   -9.9477   -1.0092    2.4192 H   0  0  0  0  0  0  0  0  0  0  0  0
   -8.5478   -1.5801    0.5198 H   0  0  0  0  0  0  0  0  0  0  0  0
   -9.1433   -3.3094    0.6107 H   0  0  0  0  0  0  0  0  0  0  0  0
  -11.3078   -1.3565    0.3217 H   0  0  0  0  0  0  0  0  0  0  0  0
  -10.1480   -1.3351   -1.0498 H   0  0  0  0  0  0  0  0  0  0  0  0
  -10.9638   -2.8671   -0.5872 H   0  0  0  0  0  0  0  0  0  0  0  0
   -7.5027   -1.4809    5.0439 H   0  0  0  0  0  0  0  0  0  0  0  0
   -5.7819   -4.0133    4.9203 H   0  0  0  0  0  0  0  0  0  0  0  0
   -4.5465   -4.4291    6.9845 H   0  0  0  0  0  0  0  0  0  0  0  0
   -3.6511   -3.6924    9.1771 H   0  0  0  0  0  0  0  0  0  0  0  0
   -4.1548   -1.7389   12.1853 H   0  0  0  0  0  0  0  0  0  0  0  0
   -4.2877   -3.0922   11.0117 H   0  0  0  0  0  0  0  0  0  0  0  0
   -2.6811   -2.3796   11.3826 H   0  0  0  0  0  0  0  0  0  0  0  0
   -5.3292    0.1899    8.5597 H   0  0  0  0  0  0  0  0  0  0  0  0
   -6.3187   -0.5740    6.4174 H   0  0  0  0  0  0  0  0  0  0  0  0
  2  1  1  0
  3  2  1  0
  4  3  1  0
  5  4  1  0
  6  5  1  0
  7  6  1  0
  8  5  1  0
  9  8  1  0
 10  9  2  0
 11  9  1  0
 12 11  2  3
 13 12  1  0
 14 13  1  0
 15 14  2  0
 16 15  1  0
 17 16  1  0
 18 17  1  0
 19 16  2  0
 20 19  1  0
 20 13  2  0
  1 21  1  0
  1 22  1  0
  1 23  1  0
  2 24  1  0
  2 25  1  0
  3 26  1  0
  3 27  1  0
  4 28  1  0
  4 29  1  0
  5 30  1  6
  6 31  1  0
  6 32  1  0
  7 33  1  0
  7 34  1  0
  7 35  1  0
 11 36  1  0
 12 37  1  0
 14 38  1  0
 15 39  1  0
 18 40  1  0
 18 41  1  0
 18 42  1  0
 19 43  1  0
 20 44  1  0
M  END
$$$$
