shuffle_control_esm0_ligand
     RDKit          3D

 44 44  0  0  0  0  0  0  0  0999 V2000
  -11.0356    5.0914   -3.0918 C   0  0  0  0  0  0  0  0  0  0  0  0
   -9.9937    4.3197   -2.3604 C   0  0  0  0  0  0  0  0  0  0  0  0
   -8.6406    4.2184   -2.9965 C   0  0  0  0  0  0  0  0  0  0  0  0
   -8.2736    5.2664   -3.9899 C   0  0  0  0  0  0  0  0  0  0  0  0
   -6.8472    5.2358   -4.4324 C   0  0  1  0  0  0  0  0  0  0  0  0
   -6.5516    6.5451   -5.1410 C   0  0  0  0  0  0  0  0  0  0  0  0
   -5.2136    6.6519   -5.8139 C   0  0  0  0  0  0  0  0  0  0  0  0
   -6.0350    5.0428   -3.2787 O   0  0  0  0  0  0  0  0  0  0  0  0
   -5.0313    4.1318   -3.2367 C   0  0  0  0  0  0  0  0  0  0  0  0
   -4.7011    3.5187   -4.2017 O   0  0  0  0  0  0  0  0  0  0  0  0
   -4.4020    3.9696   -1.8905 C   0  0  0  0  0  0  0  0  0  0  0  0
   -4.9468    3.1856   -0.9770 C   0  0  0  0  0  0  0  0  0  0  0  0
   -4.4413    3.0798    0.4245 C   0  0  0  0  0  0  0  0  0  0  0  0
   -5.3389    3.2059    1.4536 C   0  0  0  0  0  0  0  0  0  0  0  0
   -4.9202    3.1447    2.7752 C   0  0  0  0  0  0  0  0  0  0  0  0
   -3.5865    2.9439    3.0776 C   0  0  0  0  0  0  0  0  0  0  0  0
   -3.1365    2.8903    4.3488 O   0  0  0  0  0  0  0  0  0  0  0  0
   -4.0411    3.1324    5.4245 C   0  0  0  0  0  0  0  0  0  0  0  0
   -2.6742    2.8071    2.0312 C   0  0  0  0  0  0  0  0  0  0  0  0
   -3.1043    2.8660    0.7017 C   0  0  0  0  0  0  0  0  0  0  0  0
  -10.5515    5.8131   -3.7660 H   0  0  0  0  0  0  0  0  0  0  0  0
  -11.6582    4.4010   -3.6796 H   0  0  0  0  0  0  0  0  0  0  0  0
  -11.6669    5.6303   -2.3700 H   0  0  0  0  0  0  0  0  0  0  0  0
   -9.8616    4.7930   -1.3763 H   0  0  0  0  0  0  0  0  0  0  0  0
  -10.3722    3.2871   -2.3355 H   0  0  0  0  0  0  0  0  0  0  0  0
   -7.8930    4.2508   -2.1903 H   0  0  0  0  0  0  0  0  0  0  0  0
   -8.6676    3.2809   -3.5713 H   0  0  0  0  0  0  0  0  0  0  0  0
   -8.9104    5.1352   -4.8773 H   0  0  0  0  0  0  0  0  0  0  0  0
   -8.4226    6.2343   -3.4892 H   0  0  0  0  0  0  0  0  0  0  0  0
   -6.6387    4.4151   -5.1346 H   0  0  0  0  0  0  0  0  0  0  0  0
   -7.3252    6.6924   -5.9090 H   0  0  0  0  0  0  0  0  0  0  0  0
   -6.5435    7.3102   -4.3507 H   0  0  0  0  0  0  0  0  0  0  0  0
   -4.6828    7.5383   -5.4362 H   0  0  0  0  0  0  0  0  0  0  0  0
   -4.6214    5.7504   -5.5978 H   0  0  0  0  0  0  0  0  0  0  0  0
   -5.3560    6.7453   -6.9007 H   0  0  0  0  0  0  0  0  0  0  0  0
   -3.4728    4.5103   -1.6571 H   0  0  0  0  0  0  0  0  0  0  0  0
   -5.8184    2.5789   -1.2638 H   0  0  0  0  0  0  0  0  0  0  0  0
   -6.4050    3.3575    1.2284 H   0  0  0  0  0  0  0  0  0  0  0  0
   -5.6541    3.2566    3.5870 H   0  0  0  0  0  0  0  0  0  0  0  0
   -3.5943    3.8546    6.1238 H   0  0  0  0  0  0  0  0  0  0  0  0
   -4.9821    3.5407    5.0274 H   0  0  0  0  0  0  0  0  0  0  0  0
   -4.2444    2.1889    5.9521 H   0  0  0  0  0  0  0  0  0  0  0  0
   -1.6081    2.6518    2.2533 H   0  0  0  0  0  0  0  0  0  0  0  0
   -2.3823    2.7428   -0.1190 H   0  0  0  0  0  0  0  0  0  0  0  0
  2  1  1  0
  3  2  1  0
  4  3  1  0
  5  4  1  0
  6  5  1  0
  7  6  1  0
  8  5  1  0
  9  8  1  0
 10  9  2  0
 11  9  1  0
 12 11  2  3
 13 12  1  0
 14 13  1  0
 15 14  2  0
 16 15  1  0
 17 16  1  0
 18 17  1  0
 19 16  2  0
 20 13  2  0
 20 19  1  0
  1 21  1  0
  1 22  1  0
  1 23  1  0
  2 24  1  0
  2 25  1  0
  3 26  1  0
  3 27  1  0
  4 28  1  0
  4 29  1  0
  5 30  1  6
  6 31  1  0
  6 32  1  0
  7 33  1  0
  7 34  1  0
  7 35  1  0
 11 36  1  0
 12 37  1  0
 14 38  1  0
 15 39  1  0
 18 40  1  0
 18 41  1  0
 18 42  1  0
 19 43  1  0
 20 44  1  0
M  END
$$$$
