shuffle_control_ligand
     RDKit          3D

 44 44  0  0  0  0  0  0  0  0999 V2000
  -11.7015   -8.3702   -0.7211 C   0  0  0  0  0  0  0  0  0  0  0  0
  -10.3686   -8.9673   -1.0765 C   0  0  0  0  0  0  0  0  0  0  0  0
   -9.2242   -8.0878   -0.6457 C   0  0  0  0  0  0  0  0  0  0  0  0
   -7.8956   -8.7046   -0.9438 C   0  0  0  0  0  0  0  0  0  0  0  0
   -6.7191   -7.8142   -0.6162 C   0  0  2  0  0  0  0  0  0  0  0  0
   -5.4436   -8.6411   -0.6614 C   0  0  0  0  0  0  0  0  0  0  0  0
   -4.2987   -8.0783    0.1093 C   0  0  0  0  0  0  0  0  0  0  0  0
   -6.9046   -7.2838    0.6800 O   0  0  0  0  0  0  0  0  0  0  0  0
   -7.0668   -5.9682    0.8553 C   0  0  0  0  0  0  0  0  0  0  0  0
   -7.0316   -5.1985   -0.0674 O   0  0  0  0  0  0  0  0  0  0  0  0
   -7.2858   -5.5734    2.2673 C   0  0  0  0  0  0  0  0  0  0  0  0
   -7.4321   -4.2880    2.6030 C   0  0  0  0  0  0  0  0  0  0  0  0
   -7.6256   -3.8123    3.9932 C   0  0  0  0  0  0  0  0  0  0  0  0
   -7.8852   -4.6656    5.0335 C   0  0  0  0  0  0  0  0  0  0  0  0
   -8.0588   -4.1764    6.3242 C   0  0  0  0  0  0  0  0  0  0  0  0
   -7.9754   -2.8317    6.5750 C   0  0  0  0  0  0  0  0  0  0  0  0
   -8.1290   -2.2911    7.8178 O   0  0  0  0  0  0  0  0  0  0  0  0
   -8.4099   -3.1269    8.9244 C   0  0  0  0  0  0  0  0  0  0  0  0
   -7.7177   -1.9720    5.5356 C   0  0  0  0  0  0  0  0  0  0  0  0
   -7.5459   -2.4590    4.2452 C   0  0  0  0  0  0  0  0  0  0  0  0
  -12.4605   -9.1654   -0.6808 H   0  0  0  0  0  0  0  0  0  0  0  0
  -11.6331   -7.8786    0.2605 H   0  0  0  0  0  0  0  0  0  0  0  0
  -11.9864   -7.6297   -1.4830 H   0  0  0  0  0  0  0  0  0  0  0  0
  -10.2728   -9.9438   -0.5793 H   0  0  0  0  0  0  0  0  0  0  0  0
  -10.3237   -9.0723   -2.1706 H   0  0  0  0  0  0  0  0  0  0  0  0
   -9.2961   -7.1271   -1.1768 H   0  0  0  0  0  0  0  0  0  0  0  0
   -9.2958   -7.9490    0.4432 H   0  0  0  0  0  0  0  0  0  0  0  0
   -7.8038   -9.6300   -0.3563 H   0  0  0  0  0  0  0  0  0  0  0  0
   -7.8650   -8.8877   -2.0281 H   0  0  0  0  0  0  0  0  0  0  0  0
   -6.6420   -6.9930   -1.3439 H   0  0  0  0  0  0  0  0  0  0  0  0
   -5.6695   -9.6387   -0.2568 H   0  0  0  0  0  0  0  0  0  0  0  0
   -5.1260   -8.6578   -1.7144 H   0  0  0  0  0  0  0  0  0  0  0  0
   -4.6807   -7.4948    0.9598 H   0  0  0  0  0  0  0  0  0  0  0  0
   -3.6683   -8.8994    0.4814 H   0  0  0  0  0  0  0  0  0  0  0  0
   -3.7020   -7.4255   -0.5448 H   0  0  0  0  0  0  0  0  0  0  0  0
   -7.3285   -6.3474    3.0478 H   0  0  0  0  0  0  0  0  0  0  0  0
   -7.4071   -3.5378    1.7989 H   0  0  0  0  0  0  0  0  0  0  0  0
   -7.9570   -5.7472    4.8464 H   0  0  0  0  0  0  0  0  0  0  0  0
   -8.2644   -4.8740    7.1494 H   0  0  0  0  0  0  0  0  0  0  0  0
   -9.4693   -3.0239    9.2022 H   0  0  0  0  0  0  0  0  0  0  0  0
   -8.2013   -4.1731    8.6562 H   0  0  0  0  0  0  0  0  0  0  0  0
   -7.7776   -2.8335    9.7754 H   0  0  0  0  0  0  0  0  0  0  0  0
   -7.6469   -0.8908    5.7256 H   0  0  0  0  0  0  0  0  0  0  0  0
   -7.3451   -1.7602    3.4197 H   0  0  0  0  0  0  0  0  0  0  0  0
  2  1  1  0
  3  2  1  0
  4  3  1  0
  5  4  1  0
  6  5  1  0
  7  6  1  0
  8  5  1  0
  9  8  1  0
 10  9  2  0
 11  9  1  0
 12 11  2  3
 13 12  1  0
 14 13  1  0
 15 14  2  0
 16 15  1  0
 17 16  1  0
 18 17  1  0
 19 16  2  0
 20 19  1  0
 20 13  2  0
  1 21  1  0
  1 22  1  0
  1 23  1  0
  2 24  1  0
  2 25  1  0
  3 26  1  0
  3 27  1  0
  4 28  1  0
  4 29  1  0
  5 30  1  6
  6 31  1  0
  6 32  1  0
  7 33  1  0
  7 34  1  0
  7 35  1  0
 11 36  1  0
 12 37  1  0
 14 38  1  0
 15 39  1  0
 18 40  1  0
 18 41  1  0
 18 42  1  0
 19 43  1  0
 20 44  1  0
M  END
$$$$
