s3_orig_f12_ligand
 OpenBabel10092621073D

 20 20  0  0  1  0  0  0  0  0999 V2000
    8.8340   -1.7590    0.8360 C   0  0  0  0  0  0  0  0  0  0  0  0
    8.9450   -2.9520    0.7260 O   0  0  0  0  0  0  0  0  0  0  0  0
    8.9990   -0.7990   -0.2810 C   0  0  0  0  0  3  0  0  0  0  0  0
    9.7800    0.2740   -0.1790 C   0  0  0  0  0  3  0  0  0  0  0  0
    9.9080    1.3200   -1.2240 C   0  0  0  0  0  0  0  0  0  0  0  0
   11.1090    1.9950   -1.3650 C   0  0  0  0  0  3  0  0  0  0  0  0
   11.2330    3.0340   -2.2800 C   0  0  0  0  0  3  0  0  0  0  0  0
   10.1830    3.3730   -3.1080 C   0  0  0  0  0  0  0  0  0  0  0  0
    9.0130    2.6670   -3.0020 C   0  0  0  0  0  3  0  0  0  0  0  0
    8.8750    1.6460   -2.0650 C   0  0  0  0  0  3  0  0  0  0  0  0
   10.2660    4.3850   -4.0430 O   0  0  0  0  0  0  0  0  0  0  0  0
    9.0830    5.1020   -4.3410 C   0  0  0  0  0  1  0  0  0  0  0  0
    8.5990   -1.2910    1.9580 O   0  0  0  0  0  0  0  0  0  0  0  0
    8.0070   -0.8840    3.0660 C   0  0  1  0  0  3  0  0  0  0  0  0
    8.2020   -1.9070    4.1690 C   0  0  0  0  0  2  0  0  0  0  0  0
    7.7890   -1.4150    5.5520 C   0  0  0  0  0  1  0  0  0  0  0  0
    8.5250    0.4720    3.5150 C   0  0  0  0  0  2  0  0  0  0  0  0
    7.9570    1.6390    2.7780 C   0  0  0  0  0  2  0  0  0  0  0  0
    9.9490    3.0630    2.2790 C   0  0  0  0  0  1  0  0  0  0  0  0
    8.6750    2.9290    3.0830 C   0  0  0  0  0  2  0  0  0  0  0  0
  1 13  1  0  0  0  0
  2  1  2  0  0  0  0
  3  4  2  0  0  0  0
  3  1  1  0  0  0  0
  5  4  1  0  0  0  0
  6  5  1  0  0  0  0
  7  6  2  0  0  0  0
  8  9  2  0  0  0  0
  8  7  1  0  0  0  0
  9 10  1  0  0  0  0
 10  5  2  0  0  0  0
 11  8  1  0  0  0  0
 12 11  1  0  0  0  0
 13 14  1  0  0  0  0
 14 17  1  1  0  0  0
 14 15  1  0  0  0  0
 15 16  1  0  0  0  0
 18 20  1  0  0  0  0
 18 17  1  0  0  0  0
 19 20  1  0  0  0  0
M  END
>  <MODEL>
1

>  <REMARK>
 VINA RESULT:      -4.9      0.000      0.000
  Name = s3_orig_f12_ligand
  12 active torsions:
  status: ('A' for Active; 'I' for Inactive)
    1  A    between atoms: C_1  and  C_2
    2  A    between atoms: C_2  and  C_3
    3  A    between atoms: C_3  and  C_4
    4  A    between atoms: C_4  and  C_5
    5  A    between atoms: C_5  and  C_6
    6  A    between atoms: C_5  and  O_8
    7  A    between atoms: C_6  and  C_7
    8  A    between atoms: O_8  and  C_9
    9  A    between atoms: C_9  and  C_11
   10  A    between atoms: C_12  and  C_13
   11  A    between atoms: C_16  and  O_17
   12  A    between atoms: O_17  and  C_18
                            x       y       z     vdW  Elec       q    Type
                         _______ _______ _______ _____ _____    ______ ____

>  <TORSDO>
F 9

$$$$
s3_orig_f12_ligand
 OpenBabel10092621073D

 20 20  0  0  1  0  0  0  0  0999 V2000
    9.0520    0.0790   -1.3540 C   0  0  0  0  0  0  0  0  0  0  0  0
    8.1480    0.4500   -2.0570 O   0  0  0  0  0  0  0  0  0  0  0  0
    9.0010   -1.1310   -0.4990 C   0  0  0  0  0  3  0  0  0  0  0  0
    8.7280   -1.0630    0.8020 C   0  0  0  0  0  3  0  0  0  0  0  0
    8.7590   -2.2240    1.7260 C   0  0  0  0  0  0  0  0  0  0  0  0
    8.5820   -2.0150    3.0840 C   0  0  0  0  0  3  0  0  0  0  0  0
    8.6870   -3.0710    3.9810 C   0  0  0  0  0  3  0  0  0  0  0  0
    8.9090   -4.3570    3.5340 C   0  0  0  0  0  0  0  0  0  0  0  0
    9.0320   -4.5680    2.1850 C   0  0  0  0  0  3  0  0  0  0  0  0
    8.9590   -3.5070    1.2840 C   0  0  0  0  0  3  0  0  0  0  0  0
    9.0040   -5.4390    4.3860 O   0  0  0  0  0  0  0  0  0  0  0  0
    9.2810   -6.7030    3.8140 C   0  0  0  0  0  1  0  0  0  0  0  0
   10.0830    0.7630   -1.3110 O   0  0  0  0  0  0  0  0  0  0  0  0
   10.9710    1.7070   -1.0600 C   0  0  1  0  0  3  0  0  0  0  0  0
   10.9120    2.7790   -2.1320 C   0  0  0  0  0  2  0  0  0  0  0  0
   12.2470    3.4690   -2.3950 C   0  0  0  0  0  1  0  0  0  0  0  0
   10.7580    2.3290    0.3100 C   0  0  0  0  0  2  0  0  0  0  0  0
   11.2760    1.5220    1.4550 C   0  0  0  0  0  2  0  0  0  0  0  0
    9.0420    2.1720    2.3670 C   0  0  0  0  0  1  0  0  0  0  0  0
   10.4240    1.6500    2.6920 C   0  0  0  0  0  2  0  0  0  0  0  0
  1 13  1  0  0  0  0
  1  3  1  0  0  0  0
  2  1  2  0  0  0  0
  3  4  2  0  0  0  0
  4  5  1  0  0  0  0
  5  6  1  0  0  0  0
  6  7  2  0  0  0  0
  8  7  1  0  0  0  0
  8 11  1  0  0  0  0
  9  8  2  0  0  0  0
 10  5  2  0  0  0  0
 10  9  1  0  0  0  0
 12 11  1  0  0  0  0
 13 14  1  0  0  0  0
 14 15  1  6  0  0  0
 14 17  1  0  0  0  0
 16 15  1  0  0  0  0
 17 18  1  0  0  0  0
 18 20  1  0  0  0  0
 19 20  1  0  0  0  0
M  END
>  <MODEL>
2

>  <REMARK>
 VINA RESULT:      -4.8      2.448      7.215
  Name = s3_orig_f12_ligand
  12 active torsions:
  status: ('A' for Active; 'I' for Inactive)
    1  A    between atoms: C_1  and  C_2
    2  A    between atoms: C_2  and  C_3
    3  A    between atoms: C_3  and  C_4
    4  A    between atoms: C_4  and  C_5
    5  A    between atoms: C_5  and  C_6
    6  A    between atoms: C_5  and  O_8
    7  A    between atoms: C_6  and  C_7
    8  A    between atoms: O_8  and  C_9
    9  A    between atoms: C_9  and  C_11
   10  A    between atoms: C_12  and  C_13
   11  A    between atoms: C_16  and  O_17
   12  A    between atoms: O_17  and  C_18
                            x       y       z     vdW  Elec       q    Type
                         _______ _______ _______ _____ _____    ______ ____

>  <TORSDO>
F 9

$$$$
s3_orig_f12_ligand
 OpenBabel10092621073D

 20 20  0  0  1  0  0  0  0  0999 V2000
    8.7910    0.4830    1.7380 C   0  0  0  0  0  0  0  0  0  0  0  0
    7.9490    1.2110    2.1950 O   0  0  0  0  0  0  0  0  0  0  0  0
    9.1050   -0.8650    2.2680 C   0  0  0  0  0  3  0  0  0  0  0  0
    8.6140   -1.9710    1.7130 C   0  0  0  0  0  3  0  0  0  0  0  0
    8.8120   -3.3390    2.2560 C   0  0  0  0  0  0  0  0  0  0  0  0
    8.7200   -3.5460    3.6230 C   0  0  0  0  0  3  0  0  0  0  0  0
    8.9800   -4.7980    4.1670 C   0  0  0  0  0  3  0  0  0  0  0  0
    9.2740   -5.8730    3.3540 C   0  0  0  0  0  0  0  0  0  0  0  0
    9.3130   -5.6760    1.9980 C   0  0  0  0  0  3  0  0  0  0  0  0
    9.0840   -4.4150    1.4510 C   0  0  0  0  0  3  0  0  0  0  0  0
    9.5220   -7.1370    3.8480 O   0  0  0  0  0  0  0  0  0  0  0  0
    9.7430   -8.1760    2.9130 C   0  0  0  0  0  1  0  0  0  0  0  0
    9.4670    0.8910    0.7840 O   0  0  0  0  0  0  0  0  0  0  0  0
   10.3920    1.0380   -0.1460 C   0  0  1  0  0  3  0  0  0  0  0  0
   10.1680    0.0430   -1.2690 C   0  0  0  0  0  2  0  0  0  0  0  0
    8.6990   -0.2250   -1.5780 C   0  0  0  0  0  1  0  0  0  0  0  0
   10.4140    2.4530   -0.7000 C   0  0  0  0  0  2  0  0  0  0  0  0
   11.1020    2.6030   -2.0160 C   0  0  0  0  0  2  0  0  0  0  0  0
    8.9860    3.0440   -3.2690 C   0  0  0  0  0  1  0  0  0  0  0  0
   10.3790    3.5400   -2.9490 C   0  0  0  0  0  2  0  0  0  0  0  0
  1  2  2  0  0  0  0
  1  3  1  0  0  0  0
  4  5  1  0  0  0  0
  4  3  2  0  0  0  0
  5  6  1  0  0  0  0
  6  7  2  0  0  0  0
  8 11  1  0  0  0  0
  8  7  1  0  0  0  0
  9  8  2  0  0  0  0
 10  9  1  0  0  0  0
 10  5  2  0  0  0  0
 12 11  1  0  0  0  0
 13  1  1  0  0  0  0
 14 15  1  6  0  0  0
 14 13  1  0  0  0  0
 16 15  1  0  0  0  0
 17 14  1  0  0  0  0
 18 17  1  0  0  0  0
 19 20  1  0  0  0  0
 20 18  1  0  0  0  0
M  END
>  <MODEL>
3

>  <REMARK>
 VINA RESULT:      -4.7      2.785      7.718
  Name = s3_orig_f12_ligand
  12 active torsions:
  status: ('A' for Active; 'I' for Inactive)
    1  A    between atoms: C_1  and  C_2
    2  A    between atoms: C_2  and  C_3
    3  A    between atoms: C_3  and  C_4
    4  A    between atoms: C_4  and  C_5
    5  A    between atoms: C_5  and  C_6
    6  A    between atoms: C_5  and  O_8
    7  A    between atoms: C_6  and  C_7
    8  A    between atoms: O_8  and  C_9
    9  A    between atoms: C_9  and  C_11
   10  A    between atoms: C_12  and  C_13
   11  A    between atoms: C_16  and  O_17
   12  A    between atoms: O_17  and  C_18
                            x       y       z     vdW  Elec       q    Type
                         _______ _______ _______ _____ _____    ______ ____

>  <TORSDO>
F 9

$$$$
s3_orig_f12_ligand
 OpenBabel10092621073D

 20 20  0  0  1  0  0  0  0  0999 V2000
    9.1450   -0.1320   -1.0770 C   0  0  0  0  0  0  0  0  0  0  0  0
    8.3600   -0.6700   -1.8140 O   0  0  0  0  0  0  0  0  0  0  0  0
   10.1720    0.8410   -1.5180 C   0  0  0  0  0  3  0  0  0  0  0  0
    9.8590    2.0870   -1.8660 C   0  0  0  0  0  3  0  0  0  0  0  0
   10.8260    3.0730   -2.4090 C   0  0  0  0  0  0  0  0  0  0  0  0
   10.3780    4.0590   -3.2730 C   0  0  0  0  0  3  0  0  0  0  0  0
   11.2730    4.9450   -3.8600 C   0  0  0  0  0  3  0  0  0  0  0  0
   12.6160    4.9010   -3.5470 C   0  0  0  0  0  0  0  0  0  0  0  0
   13.0480    3.9590   -2.6510 C   0  0  0  0  0  3  0  0  0  0  0  0
   12.1590    3.0480   -2.0850 C   0  0  0  0  0  3  0  0  0  0  0  0
   13.5380    5.7720   -4.0920 O   0  0  0  0  0  0  0  0  0  0  0  0
   13.5410    5.9300   -5.4980 C   0  0  0  0  0  1  0  0  0  0  0  0
    9.1220   -0.4290    0.1250 O   0  0  0  0  0  0  0  0  0  0  0  0
    9.0380   -0.3870    1.4420 C   0  0  1  0  0  3  0  0  0  0  0  0
    9.3140   -1.7590    2.0270 C   0  0  0  0  0  2  0  0  0  0  0  0
    8.7360   -2.9110    1.2110 C   0  0  0  0  0  1  0  0  0  0  0  0
    9.9960    0.6340    2.0340 C   0  0  0  0  0  2  0  0  0  0  0  0
    9.4610    2.0260    2.1130 C   0  0  0  0  0  2  0  0  0  0  0  0
   11.8430    2.5240    1.5410 C   0  0  0  0  0  1  0  0  0  0  0  0
   10.4250    3.0520    1.5750 C   0  0  0  0  0  2  0  0  0  0  0  0
  1 13  1  0  0  0  0
  2  1  2  0  0  0  0
  3  1  1  0  0  0  0
  4  3  2  0  0  0  0
  5 10  1  0  0  0  0
  5  4  1  0  0  0  0
  6  5  2  0  0  0  0
  7  8  2  0  0  0  0
  7  6  1  0  0  0  0
  8  9  1  0  0  0  0
  9 10  2  0  0  0  0
 11  8  1  0  0  0  0
 12 11  1  0  0  0  0
 13 14  1  0  0  0  0
 14 15  1  1  0  0  0
 14 17  1  0  0  0  0
 16 15  1  0  0  0  0
 17 18  1  0  0  0  0
 19 20  1  0  0  0  0
 20 18  1  0  0  0  0
M  END
>  <MODEL>
4

>  <REMARK>
 VINA RESULT:      -4.7      2.083      2.975
  Name = s3_orig_f12_ligand
  12 active torsions:
  status: ('A' for Active; 'I' for Inactive)
    1  A    between atoms: C_1  and  C_2
    2  A    between atoms: C_2  and  C_3
    3  A    between atoms: C_3  and  C_4
    4  A    between atoms: C_4  and  C_5
    5  A    between atoms: C_5  and  C_6
    6  A    between atoms: C_5  and  O_8
    7  A    between atoms: C_6  and  C_7
    8  A    between atoms: O_8  and  C_9
    9  A    between atoms: C_9  and  C_11
   10  A    between atoms: C_12  and  C_13
   11  A    between atoms: C_16  and  O_17
   12  A    between atoms: O_17  and  C_18
                            x       y       z     vdW  Elec       q    Type
                         _______ _______ _______ _____ _____    ______ ____

>  <TORSDO>
F 9

$$$$
s3_orig_f12_ligand
 OpenBabel10092621073D

 20 20  0  0  1  0  0  0  0  0999 V2000
    9.0460   -0.5510   -1.0840 C   0  0  0  0  0  0  0  0  0  0  0  0
    8.2230   -0.6880   -1.9510 O   0  0  0  0  0  0  0  0  0  0  0  0
   10.2200    0.3470   -1.1830 C   0  0  0  0  0  3  0  0  0  0  0  0
   10.1530    1.6340   -0.8460 C   0  0  0  0  0  3  0  0  0  0  0  0
   11.2640    2.6030   -1.0150 C   0  0  0  0  0  0  0  0  0  0  0  0
   11.7430    2.8700   -2.2870 C   0  0  0  0  0  3  0  0  0  0  0  0
   12.8350    3.7100   -2.4700 C   0  0  0  0  0  3  0  0  0  0  0  0
   13.4240    4.3430   -1.3950 C   0  0  0  0  0  0  0  0  0  0  0  0
   12.9140    4.1180   -0.1430 C   0  0  0  0  0  3  0  0  0  0  0  0
   11.8390    3.2510    0.0470 C   0  0  0  0  0  3  0  0  0  0  0  0
   14.4990    5.1990   -1.5300 O   0  0  0  0  0  0  0  0  0  0  0  0
   14.4800    6.1120   -2.6110 C   0  0  0  0  0  1  0  0  0  0  0  0
    8.9300   -1.2260   -0.0520 O   0  0  0  0  0  0  0  0  0  0  0  0
    8.5010   -1.7480    1.0820 C   0  0  1  0  0  3  0  0  0  0  0  0
    8.8490   -3.2240    1.1430 C   0  0  0  0  0  2  0  0  0  0  0  0
    9.0600   -3.7540    2.5570 C   0  0  0  0  0  1  0  0  0  0  0  0
    9.0790   -1.0260    2.2880 C   0  0  0  0  0  2  0  0  0  0  0  0
    8.6580    0.3990    2.4290 C   0  0  0  0  0  2  0  0  0  0  0  0
   11.1390    0.6350    2.6170 C   0  0  0  0  0  1  0  0  0  0  0  0
    9.7980    1.3090    2.8090 C   0  0  0  0  0  2  0  0  0  0  0  0
  1 13  1  0  0  0  0
  2  1  2  0  0  0  0
  3  1  1  0  0  0  0
  3  4  2  0  0  0  0
  5  4  1  0  0  0  0
  5 10  1  0  0  0  0
  6  5  2  0  0  0  0
  7  6  1  0  0  0  0
  7  8  2  0  0  0  0
  8  9  1  0  0  0  0
  9 10  2  0  0  0  0
 11  8  1  0  0  0  0
 12 11  1  0  0  0  0
 13 14  1  0  0  0  0
 14 15  1  1  0  0  0
 14 17  1  0  0  0  0
 15 16  1  0  0  0  0
 17 18  1  0  0  0  0
 18 20  1  0  0  0  0
 19 20  1  0  0  0  0
M  END
>  <MODEL>
5

>  <REMARK>
 VINA RESULT:      -4.6      2.342      3.166
  Name = s3_orig_f12_ligand
  12 active torsions:
  status: ('A' for Active; 'I' for Inactive)
    1  A    between atoms: C_1  and  C_2
    2  A    between atoms: C_2  and  C_3
    3  A    between atoms: C_3  and  C_4
    4  A    between atoms: C_4  and  C_5
    5  A    between atoms: C_5  and  C_6
    6  A    between atoms: C_5  and  O_8
    7  A    between atoms: C_6  and  C_7
    8  A    between atoms: O_8  and  C_9
    9  A    between atoms: C_9  and  C_11
   10  A    between atoms: C_12  and  C_13
   11  A    between atoms: C_16  and  O_17
   12  A    between atoms: O_17  and  C_18
                            x       y       z     vdW  Elec       q    Type
                         _______ _______ _______ _____ _____    ______ ____

>  <TORSDO>
F 9

$$$$
s3_orig_f12_ligand
 OpenBabel10092621073D

 20 20  0  0  1  0  0  0  0  0999 V2000
    9.1050   -1.2260    0.8010 C   0  0  0  0  0  0  0  0  0  0  0  0
    8.6460   -2.3250    0.6270 O   0  0  0  0  0  0  0  0  0  0  0  0
    9.0750   -0.1410   -0.2080 C   0  0  0  0  0  3  0  0  0  0  0  0
   10.1820    0.4830   -0.6040 C   0  0  0  0  0  3  0  0  0  0  0  0
   10.2040    1.6410   -1.5340 C   0  0  0  0  0  0  0  0  0  0  0  0
    9.0570    1.9670   -2.2370 C   0  0  0  0  0  3  0  0  0  0  0  0
    9.0700    2.9940   -3.1740 C   0  0  0  0  0  3  0  0  0  0  0  0
   10.2080    3.7480   -3.3770 C   0  0  0  0  0  0  0  0  0  0  0  0
   11.3260    3.4560   -2.6400 C   0  0  0  0  0  3  0  0  0  0  0  0
   11.3260    2.4070   -1.7230 C   0  0  0  0  0  3  0  0  0  0  0  0
   10.2620    4.7880   -4.2830 O   0  0  0  0  0  0  0  0  0  0  0  0
    9.4990    5.9450   -4.0020 C   0  0  0  0  0  1  0  0  0  0  0  0
    9.6710   -0.9890    1.8760 O   0  0  0  0  0  0  0  0  0  0  0  0
    9.9890   -0.9230    3.1550 C   0  0  1  0  0  3  0  0  0  0  0  0
   11.0130   -1.9890    3.4960 C   0  0  0  0  0  2  0  0  0  0  0  0
   10.4530   -3.4070    3.5080 C   0  0  0  0  0  1  0  0  0  0  0  0
   10.5210    0.4500    3.5320 C   0  0  0  0  0  2  0  0  0  0  0  0
   11.5950    0.9760    2.6370 C   0  0  0  0  0  2  0  0  0  0  0  0
    9.9980    2.8160    2.0780 C   0  0  0  0  0  1  0  0  0  0  0  0
   11.4410    2.4470    2.3440 C   0  0  0  0  0  2  0  0  0  0  0  0
  1 13  1  0  0  0  0
  2  1  2  0  0  0  0
  3  1  1  0  0  0  0
  4  3  2  0  0  0  0
  5  4  1  0  0  0  0
  6  5  2  0  0  0  0
  7  6  1  0  0  0  0
  8  7  2  0  0  0  0
  8  9  1  0  0  0  0
  9 10  2  0  0  0  0
 10  5  1  0  0  0  0
 11 12  1  0  0  0  0
 11  8  1  0  0  0  0
 13 14  1  0  0  0  0
 14 15  1  6  0  0  0
 14 17  1  0  0  0  0
 15 16  1  0  0  0  0
 18 17  1  0  0  0  0
 19 20  1  0  0  0  0
 20 18  1  0  0  0  0
M  END
>  <MODEL>
6

>  <REMARK>
 VINA RESULT:      -4.5      1.406      2.021
  Name = s3_orig_f12_ligand
  12 active torsions:
  status: ('A' for Active; 'I' for Inactive)
    1  A    between atoms: C_1  and  C_2
    2  A    between atoms: C_2  and  C_3
    3  A    between atoms: C_3  and  C_4
    4  A    between atoms: C_4  and  C_5
    5  A    between atoms: C_5  and  C_6
    6  A    between atoms: C_5  and  O_8
    7  A    between atoms: C_6  and  C_7
    8  A    between atoms: O_8  and  C_9
    9  A    between atoms: C_9  and  C_11
   10  A    between atoms: C_12  and  C_13
   11  A    between atoms: C_16  and  O_17
   12  A    between atoms: O_17  and  C_18
                            x       y       z     vdW  Elec       q    Type
                         _______ _______ _______ _____ _____    ______ ____

>  <TORSDO>
F 9

$$$$
s3_orig_f12_ligand
 OpenBabel10092621073D

 20 20  0  0  1  0  0  0  0  0999 V2000
    7.8080    0.5760    2.5540 C   0  0  0  0  0  0  0  0  0  0  0  0
    6.9240    1.2710    2.9820 O   0  0  0  0  0  0  0  0  0  0  0  0
    7.8610   -0.8970    2.7100 C   0  0  0  0  0  3  0  0  0  0  0  0
    8.9450   -1.6010    2.3920 C   0  0  0  0  0  3  0  0  0  0  0  0
    9.0240   -3.0830    2.4330 C   0  0  0  0  0  0  0  0  0  0  0  0
    9.1090   -3.7240    3.6570 C   0  0  0  0  0  3  0  0  0  0  0  0
    9.2650   -5.1030    3.7240 C   0  0  0  0  0  3  0  0  0  0  0  0
    9.2770   -5.8670    2.5750 C   0  0  0  0  0  0  0  0  0  0  0  0
    9.1390   -5.2340    1.3670 C   0  0  0  0  0  3  0  0  0  0  0  0
    9.0140   -3.8480    1.2950 C   0  0  0  0  0  3  0  0  0  0  0  0
    9.4120   -7.2410    2.5930 O   0  0  0  0  0  0  0  0  0  0  0  0
   10.4990   -7.8030    1.8820 C   0  0  0  0  0  1  0  0  0  0  0  0
    8.7560    1.1210    1.9740 O   0  0  0  0  0  0  0  0  0  0  0  0
    9.6130    2.0030    1.4940 C   0  0  1  0  0  3  0  0  0  0  0  0
   10.2240    2.8070    2.6260 C   0  0  0  0  0  2  0  0  0  0  0  0
    9.3980    4.0180    3.0450 C   0  0  0  0  0  1  0  0  0  0  0  0
   10.7090    1.3360    0.6780 C   0  0  0  0  0  2  0  0  0  0  0  0
   10.6010    1.5310   -0.7980 C   0  0  0  0  0  2  0  0  0  0  0  0
    9.5530   -0.7010   -1.2050 C   0  0  0  0  0  1  0  0  0  0  0  0
    9.4320    0.7940   -1.4010 C   0  0  0  0  0  2  0  0  0  0  0  0
  1  3  1  0  0  0  0
  1  2  2  0  0  0  0
  4  5  1  0  0  0  0
  4  3  2  0  0  0  0
  5  6  1  0  0  0  0
  6  7  2  0  0  0  0
  8 11  1  0  0  0  0
  8  7  1  0  0  0  0
  9  8  2  0  0  0  0
 10  9  1  0  0  0  0
 10  5  2  0  0  0  0
 12 11  1  0  0  0  0
 13  1  1  0  0  0  0
 14 17  1  1  0  0  0
 14 13  1  0  0  0  0
 14 15  1  0  0  0  0
 15 16  1  0  0  0  0
 18 17  1  0  0  0  0
 20 19  1  0  0  0  0
 20 18  1  0  0  0  0
M  END
>  <MODEL>
7

>  <REMARK>
 VINA RESULT:      -4.4      2.717      7.278
  Name = s3_orig_f12_ligand
  12 active torsions:
  status: ('A' for Active; 'I' for Inactive)
    1  A    between atoms: C_1  and  C_2
    2  A    between atoms: C_2  and  C_3
    3  A    between atoms: C_3  and  C_4
    4  A    between atoms: C_4  and  C_5
    5  A    between atoms: C_5  and  C_6
    6  A    between atoms: C_5  and  O_8
    7  A    between atoms: C_6  and  C_7
    8  A    between atoms: O_8  and  C_9
    9  A    between atoms: C_9  and  C_11
   10  A    between atoms: C_12  and  C_13
   11  A    between atoms: C_16  and  O_17
   12  A    between atoms: O_17  and  C_18
                            x       y       z     vdW  Elec       q    Type
                         _______ _______ _______ _____ _____    ______ ____

>  <TORSDO>
F 9

$$$$
s3_orig_f12_ligand
 OpenBabel10092621073D

 20 20  0  0  1  0  0  0  0  0999 V2000
    9.3570   -0.3190   -0.5120 C   0  0  0  0  0  0  0  0  0  0  0  0
    9.4090   -1.4680   -0.8650 O   0  0  0  0  0  0  0  0  0  0  0  0
    9.5820    0.8400   -1.4070 C   0  0  0  0  0  3  0  0  0  0  0  0
   10.7340    1.5080   -1.4190 C   0  0  0  0  0  3  0  0  0  0  0  0
   10.9840    2.7320   -2.2190 C   0  0  0  0  0  0  0  0  0  0  0  0
    9.9360    3.3170   -2.9090 C   0  0  0  0  0  3  0  0  0  0  0  0
   10.1560    4.4170   -3.7310 C   0  0  0  0  0  3  0  0  0  0  0  0
   11.4100    4.9840   -3.8280 C   0  0  0  0  0  0  0  0  0  0  0  0
   12.4340    4.4350   -3.1020 C   0  0  0  0  0  3  0  0  0  0  0  0
   12.2240    3.3130   -2.3010 C   0  0  0  0  0  3  0  0  0  0  0  0
   11.6720    6.0860   -4.6170 O   0  0  0  0  0  0  0  0  0  0  0  0
   10.7300    6.4140   -5.6210 C   0  0  0  0  0  1  0  0  0  0  0  0
    9.1330   -0.0800    0.6830 O   0  0  0  0  0  0  0  0  0  0  0  0
    9.0390   -0.1580    1.9970 C   0  0  1  0  0  3  0  0  0  0  0  0
    8.5890    1.1720    2.5690 C   0  0  0  0  0  2  0  0  0  0  0  0
    9.4860    2.3470    2.1920 C   0  0  0  0  0  1  0  0  0  0  0  0
    8.0850   -1.2600    2.4280 C   0  0  0  0  0  2  0  0  0  0  0  0
    8.6900   -2.3090    3.3030 C   0  0  0  0  0  2  0  0  0  0  0  0
    8.9820   -3.9920    1.4780 C   0  0  0  0  0  1  0  0  0  0  0  0
    9.6640   -3.1920    2.5660 C   0  0  0  0  0  2  0  0  0  0  0  0
  1 13  1  0  0  0  0
  2  1  2  0  0  0  0
  3  1  1  0  0  0  0
  4  3  2  0  0  0  0
  5  4  1  0  0  0  0
  6  5  2  0  0  0  0
  7  6  1  0  0  0  0
  8  7  2  0  0  0  0
  8  9  1  0  0  0  0
  9 10  2  0  0  0  0
 10  5  1  0  0  0  0
 11  8  1  0  0  0  0
 12 11  1  0  0  0  0
 13 14  1  0  0  0  0
 14 17  1  6  0  0  0
 14 15  1  0  0  0  0
 16 15  1  0  0  0  0
 17 18  1  0  0  0  0
 19 20  1  0  0  0  0
 20 18  1  0  0  0  0
M  END
>  <MODEL>
8

>  <REMARK>
 VINA RESULT:      -4.4      1.569      3.424
  Name = s3_orig_f12_ligand
  12 active torsions:
  status: ('A' for Active; 'I' for Inactive)
    1  A    between atoms: C_1  and  C_2
    2  A    between atoms: C_2  and  C_3
    3  A    between atoms: C_3  and  C_4
    4  A    between atoms: C_4  and  C_5
    5  A    between atoms: C_5  and  C_6
    6  A    between atoms: C_5  and  O_8
    7  A    between atoms: C_6  and  C_7
    8  A    between atoms: O_8  and  C_9
    9  A    between atoms: C_9  and  C_11
   10  A    between atoms: C_12  and  C_13
   11  A    between atoms: C_16  and  O_17
   12  A    between atoms: O_17  and  C_18
                            x       y       z     vdW  Elec       q    Type
                         _______ _______ _______ _____ _____    ______ ____

>  <TORSDO>
F 9

$$$$
s3_orig_f12_ligand
 OpenBabel10092621073D

 20 20  0  0  1  0  0  0  0  0999 V2000
    9.0990   -1.2340    0.6270 C   0  0  0  0  0  0  0  0  0  0  0  0
    8.9940   -2.4180    0.4420 O   0  0  0  0  0  0  0  0  0  0  0  0
    9.1920   -0.2250   -0.4550 C   0  0  0  0  0  3  0  0  0  0  0  0
   10.1560    0.6920   -0.4830 C   0  0  0  0  0  3  0  0  0  0  0  0
   10.2440    1.7850   -1.4830 C   0  0  0  0  0  0  0  0  0  0  0  0
    9.1250    2.1120   -2.2300 C   0  0  0  0  0  3  0  0  0  0  0  0
    9.1990    3.0750   -3.2300 C   0  0  0  0  0  3  0  0  0  0  0  0
   10.3700    3.7680   -3.4560 C   0  0  0  0  0  0  0  0  0  0  0  0
   11.4610    3.4780   -2.6790 C   0  0  0  0  0  3  0  0  0  0  0  0
   11.4000    2.4910   -1.6970 C   0  0  0  0  0  3  0  0  0  0  0  0
   10.4860    4.7440   -4.4250 O   0  0  0  0  0  0  0  0  0  0  0  0
    9.3130    5.4430   -4.7950 C   0  0  0  0  0  1  0  0  0  0  0  0
    9.1680   -0.8240    1.7940 O   0  0  0  0  0  0  0  0  0  0  0  0
    8.8940   -0.5030    3.0450 C   0  0  1  0  0  3  0  0  0  0  0  0
    7.8440    0.5910    3.0860 C   0  0  0  0  0  2  0  0  0  0  0  0
    8.3550    1.9610    2.6540 C   0  0  0  0  0  1  0  0  0  0  0  0
    8.4260   -1.7070    3.8450 C   0  0  0  0  0  2  0  0  0  0  0  0
    9.0070   -1.8160    5.2160 C   0  0  0  0  0  2  0  0  0  0  0  0
    7.0990   -0.7550    6.4330 C   0  0  0  0  0  1  0  0  0  0  0  0
    7.9560   -1.9930    6.2820 C   0  0  0  0  0  2  0  0  0  0  0  0
  1 13  1  0  0  0  0
  2  1  2  0  0  0  0
  3  1  1  0  0  0  0
  4  3  2  0  0  0  0
  5  4  1  0  0  0  0
  6  5  2  0  0  0  0
  7  6  1  0  0  0  0
  8  7  2  0  0  0  0
  8  9  1  0  0  0  0
  9 10  2  0  0  0  0
 10  5  1  0  0  0  0
 11  8  1  0  0  0  0
 12 11  1  0  0  0  0
 13 14  1  0  0  0  0
 14 15  1  6  0  0  0
 14 17  1  0  0  0  0
 16 15  1  0  0  0  0
 17 18  1  0  0  0  0
 18 20  1  0  0  0  0
 20 19  1  0  0  0  0
M  END
>  <MODEL>
9

>  <REMARK>
 VINA RESULT:      -4.3      0.807      2.781
  Name = s3_orig_f12_ligand
  12 active torsions:
  status: ('A' for Active; 'I' for Inactive)
    1  A    between atoms: C_1  and  C_2
    2  A    between atoms: C_2  and  C_3
    3  A    between atoms: C_3  and  C_4
    4  A    between atoms: C_4  and  C_5
    5  A    between atoms: C_5  and  C_6
    6  A    between atoms: C_5  and  O_8
    7  A    between atoms: C_6  and  C_7
    8  A    between atoms: O_8  and  C_9
    9  A    between atoms: C_9  and  C_11
   10  A    between atoms: C_12  and  C_13
   11  A    between atoms: C_16  and  O_17
   12  A    between atoms: O_17  and  C_18
                            x       y       z     vdW  Elec       q    Type
                         _______ _______ _______ _____ _____    ______ ____

>  <TORSDO>
F 9

$$$$
