orig_f12_ligand
     RDKit          3D

 44 44  0  0  0  0  0  0  0  0999 V2000
   -3.7142   -1.6686   10.1190 C   0  0  0  0  0  0  0  0  0  0  0  0
   -3.2245   -1.2136    8.7654 C   0  0  0  0  0  0  0  0  0  0  0  0
   -4.1797   -1.5888    7.6685 C   0  0  0  0  0  0  0  0  0  0  0  0
   -3.6843   -1.1560    6.3275 C   0  0  0  0  0  0  0  0  0  0  0  0
   -4.5873   -1.5567    5.1811 C   0  0  2  0  0  0  0  0  0  0  0  0
   -3.9467   -1.2255    3.8420 C   0  0  0  0  0  0  0  0  0  0  0  0
   -4.4493    0.0471    3.1858 C   0  0  0  0  0  0  0  0  0  0  0  0
   -5.8056   -0.8635    5.3066 O   0  0  0  0  0  0  0  0  0  0  0  0
   -6.9318   -1.5530    5.4190 C   0  0  0  0  0  0  0  0  0  0  0  0
   -6.9555   -2.7413    5.6572 O   0  0  0  0  0  0  0  0  0  0  0  0
   -8.1231   -0.7308    5.1702 C   0  0  0  0  0  0  0  0  0  0  0  0
   -9.2655   -1.3263    4.8082 C   0  0  0  0  0  0  0  0  0  0  0  0
  -10.4677   -0.5650    4.4271 C   0  0  0  0  0  0  0  0  0  0  0  0
  -10.5509    0.7996    4.5861 C   0  0  0  0  0  0  0  0  0  0  0  0
  -11.6830    1.4883    4.1824 C   0  0  0  0  0  0  0  0  0  0  0  0
  -12.7354    0.8100    3.6292 C   0  0  0  0  0  0  0  0  0  0  0  0
  -13.8688    1.4377    3.1978 O   0  0  0  0  0  0  0  0  0  0  0  0
  -14.1488    2.7648    3.6264 C   0  0  0  0  0  0  0  0  0  0  0  0
  -12.6601   -0.5602    3.4629 C   0  0  0  0  0  0  0  0  0  0  0  0
  -11.5256   -1.2470    3.8777 C   0  0  0  0  0  0  0  0  0  0  0  0
   -3.0241   -2.4232   10.5240 H   0  0  0  0  0  0  0  0  0  0  0  0
   -3.7574   -0.8073   10.8018 H   0  0  0  0  0  0  0  0  0  0  0  0
   -4.7180   -2.1068   10.0175 H   0  0  0  0  0  0  0  0  0  0  0  0
   -3.1094   -0.1198    8.7782 H   0  0  0  0  0  0  0  0  0  0  0  0
   -2.2640   -1.7112    8.5657 H   0  0  0  0  0  0  0  0  0  0  0  0
   -4.3064   -2.6815    7.6654 H   0  0  0  0  0  0  0  0  0  0  0  0
   -5.1358   -1.0796    7.8597 H   0  0  0  0  0  0  0  0  0  0  0  0
   -3.5928   -0.0598    6.3296 H   0  0  0  0  0  0  0  0  0  0  0  0
   -2.7201   -1.6602    6.1656 H   0  0  0  0  0  0  0  0  0  0  0  0
   -4.7568   -2.6428    5.2187 H   0  0  0  0  0  0  0  0  0  0  0  0
   -2.8627   -1.1232    3.9986 H   0  0  0  0  0  0  0  0  0  0  0  0
   -4.2150   -2.0477    3.1621 H   0  0  0  0  0  0  0  0  0  0  0  0
   -4.4952    0.8521    3.9340 H   0  0  0  0  0  0  0  0  0  0  0  0
   -3.7637    0.3378    2.3762 H   0  0  0  0  0  0  0  0  0  0  0  0
   -5.4536   -0.1259    2.7713 H   0  0  0  0  0  0  0  0  0  0  0  0
   -8.0767    0.3626    5.2804 H   0  0  0  0  0  0  0  0  0  0  0  0
   -9.3085   -2.4255    4.7946 H   0  0  0  0  0  0  0  0  0  0  0  0
   -9.7110    1.3481    5.0377 H   0  0  0  0  0  0  0  0  0  0  0  0
  -11.7363    2.5800    4.3062 H   0  0  0  0  0  0  0  0  0  0  0  0
  -13.9332    2.8561    4.7012 H   0  0  0  0  0  0  0  0  0  0  0  0
  -13.5205    3.4718    3.0650 H   0  0  0  0  0  0  0  0  0  0  0  0
  -15.2095    2.9927    3.4446 H   0  0  0  0  0  0  0  0  0  0  0  0
  -13.4971   -1.1060    3.0028 H   0  0  0  0  0  0  0  0  0  0  0  0
  -11.4748   -2.3401    3.7656 H   0  0  0  0  0  0  0  0  0  0  0  0
  2  1  1  0
  3  2  1  0
  4  3  1  0
  5  4  1  0
  6  5  1  0
  7  6  1  0
  8  5  1  0
  9  8  1  0
 10  9  2  0
 11  9  1  0
 12 11  2  3
 13 12  1  0
 14 13  1  0
 15 14  2  0
 16 15  1  0
 17 16  1  0
 18 17  1  0
 19 16  2  0
 20 19  1  0
 20 13  2  0
  1 21  1  0
  1 22  1  0
  1 23  1  0
  2 24  1  0
  2 25  1  0
  3 26  1  0
  3 27  1  0
  4 28  1  0
  4 29  1  0
  5 30  1  6
  6 31  1  0
  6 32  1  0
  7 33  1  0
  7 34  1  0
  7 35  1  0
 11 36  1  0
 12 37  1  0
 14 38  1  0
 15 39  1  0
 18 40  1  0
 18 41  1  0
 18 42  1  0
 19 43  1  0
 20 44  1  0
M  END
$$$$
