orig_f12_ligand
 OpenBabel10092621033D

 20 20  0  0  1  0  0  0  0  0999 V2000
   -2.1210    4.5840    8.6570 C   0  0  0  0  0  0  0  0  0  0  0  0
   -1.1270    4.0010    9.0310 O   0  0  0  0  0  0  0  0  0  0  0  0
   -3.4930    4.2080    9.0220 C   0  0  0  0  0  3  0  0  0  0  0  0
   -4.2750    3.6190    8.1110 C   0  0  0  0  0  3  0  0  0  0  0  0
   -5.6960    3.3200    8.3630 C   0  0  0  0  0  0  0  0  0  0  0  0
   -6.4420    4.0280    9.2780 C   0  0  0  0  0  3  0  0  0  0  0  0
   -7.7850    3.7440    9.4620 C   0  0  0  0  0  3  0  0  0  0  0  0
   -8.3790    2.7460    8.7380 C   0  0  0  0  0  0  0  0  0  0  0  0
   -7.6390    2.0310    7.8150 C   0  0  0  0  0  3  0  0  0  0  0  0
   -6.2900    2.3140    7.6400 C   0  0  0  0  0  3  0  0  0  0  0  0
   -9.7020    2.4330    8.8660 O   0  0  0  0  0  0  0  0  0  0  0  0
  -10.1080    1.0700    8.8940 C   0  0  0  0  0  1  0  0  0  0  0  0
   -2.0810    5.6110    7.8220 O   0  0  0  0  0  0  0  0  0  0  0  0
   -1.9200    6.9110    8.3400 C   0  0  1  0  0  3  0  0  0  0  0  0
   -0.6270    7.5140    7.8150 C   0  0  0  0  0  2  0  0  0  0  0  0
   -0.0300    6.8090    6.6110 C   0  0  0  0  0  1  0  0  0  0  0  0
   -3.1130    7.7450    7.9270 C   0  0  0  0  0  2  0  0  0  0  0  0
   -3.8070    7.2450    6.7020 C   0  0  0  0  0  2  0  0  0  0  0  0
   -5.6930    7.4650    8.3220 C   0  0  0  0  0  1  0  0  0  0  0  0
   -5.2710    7.0100    6.9450 C   0  0  0  0  0  2  0  0  0  0  0  0
  1  3  1  0  0  0  0
  1  2  2  0  0  0  0
  4  5  1  0  0  0  0
  4  3  2  0  0  0  0
  5  6  1  0  0  0  0
  6  7  2  0  0  0  0
  8 11  1  0  0  0  0
  8  7  1  0  0  0  0
  9  8  2  0  0  0  0
 10  9  1  0  0  0  0
 10  5  2  0  0  0  0
 11 12  1  0  0  0  0
 13 14  1  0  0  0  0
 13  1  1  0  0  0  0
 14 15  1  6  0  0  0
 16 15  1  0  0  0  0
 17 14  1  0  0  0  0
 18 20  1  0  0  0  0
 18 17  1  0  0  0  0
 20 19  1  0  0  0  0
M  END
>  <MODEL>
1

>  <REMARK>
 VINA RESULT:      -3.4      0.000      0.000
  Name = orig_f12_ligand
  12 active torsions:
  status: ('A' for Active; 'I' for Inactive)
    1  A    between atoms: C_1  and  C_2
    2  A    between atoms: C_2  and  C_3
    3  A    between atoms: C_3  and  C_4
    4  A    between atoms: C_4  and  C_5
    5  A    between atoms: C_5  and  C_6
    6  A    between atoms: C_5  and  O_8
    7  A    between atoms: C_6  and  C_7
    8  A    between atoms: O_8  and  C_9
    9  A    between atoms: C_9  and  C_11
   10  A    between atoms: C_12  and  C_13
   11  A    between atoms: C_16  and  O_17
   12  A    between atoms: O_17  and  C_18
                            x       y       z     vdW  Elec       q    Type
                         _______ _______ _______ _____ _____    ______ ____

>  <TORSDO>
F 9

$$$$
orig_f12_ligand
 OpenBabel10092621033D

 20 20  0  0  1  0  0  0  0  0999 V2000
   -2.6060    4.5530    8.8690 C   0  0  0  0  0  0  0  0  0  0  0  0
   -2.1920    4.4940   10.0060 O   0  0  0  0  0  0  0  0  0  0  0  0
   -3.7820    3.8270    8.3720 C   0  0  0  0  0  3  0  0  0  0  0  0
   -4.9850    4.0970    8.8900 C   0  0  0  0  0  3  0  0  0  0  0  0
   -6.1920    3.3320    8.5310 C   0  0  0  0  0  0  0  0  0  0  0  0
   -6.1790    2.3610    7.5540 C   0  0  0  0  0  3  0  0  0  0  0  0
   -7.3230    1.6350    7.2680 C   0  0  0  0  0  3  0  0  0  0  0  0
   -8.4810    1.8860    7.9510 C   0  0  0  0  0  0  0  0  0  0  0  0
   -8.5040    2.8570    8.9350 C   0  0  0  0  0  3  0  0  0  0  0  0
   -7.3560    3.5890    9.2120 C   0  0  0  0  0  3  0  0  0  0  0  0
   -9.6350    1.1910    7.7230 O   0  0  0  0  0  0  0  0  0  0  0  0
   -9.5710   -0.1560    7.2710 C   0  0  0  0  0  1  0  0  0  0  0  0
   -2.0030    5.2530    7.9200 O   0  0  0  0  0  0  0  0  0  0  0  0
   -1.7500    6.6220    8.1330 C   0  0  1  0  0  3  0  0  0  0  0  0
   -0.7720    7.1300    7.0860 C   0  0  0  0  0  2  0  0  0  0  0  0
    0.3760    6.1890    6.7670 C   0  0  0  0  0  1  0  0  0  0  0  0
   -3.0620    7.3720    8.0580 C   0  0  0  0  0  2  0  0  0  0  0  0
   -3.6820    7.3720    6.6990 C   0  0  0  0  0  2  0  0  0  0  0  0
   -5.7590    7.5320    8.0740 C   0  0  0  0  0  1  0  0  0  0  0  0
   -5.1580    7.0980    6.7580 C   0  0  0  0  0  2  0  0  0  0  0  0
  1  2  2  0  0  0  0
  3  1  1  0  0  0  0
  3  4  2  0  0  0  0
  5  4  1  0  0  0  0
  5 10  1  0  0  0  0
  6  5  2  0  0  0  0
  7  6  1  0  0  0  0
  7  8  2  0  0  0  0
  8  9  1  0  0  0  0
  9 10  2  0  0  0  0
 11  8  1  0  0  0  0
 12 11  1  0  0  0  0
 13 14  1  0  0  0  0
 13  1  1  0  0  0  0
 14 15  1  6  0  0  0
 16 15  1  0  0  0  0
 17 14  1  0  0  0  0
 18 20  1  0  0  0  0
 18 17  1  0  0  0  0
 20 19  1  0  0  0  0
M  END
>  <MODEL>
2

>  <REMARK>
 VINA RESULT:      -3.2      0.878      1.390
  Name = orig_f12_ligand
  12 active torsions:
  status: ('A' for Active; 'I' for Inactive)
    1  A    between atoms: C_1  and  C_2
    2  A    between atoms: C_2  and  C_3
    3  A    between atoms: C_3  and  C_4
    4  A    between atoms: C_4  and  C_5
    5  A    between atoms: C_5  and  C_6
    6  A    between atoms: C_5  and  O_8
    7  A    between atoms: C_6  and  C_7
    8  A    between atoms: O_8  and  C_9
    9  A    between atoms: C_9  and  C_11
   10  A    between atoms: C_12  and  C_13
   11  A    between atoms: C_16  and  O_17
   12  A    between atoms: O_17  and  C_18
                            x       y       z     vdW  Elec       q    Type
                         _______ _______ _______ _____ _____    ______ ____

>  <TORSDO>
F 9

$$$$
orig_f12_ligand
 OpenBabel10092621033D

 20 20  0  0  1  0  0  0  0  0999 V2000
   -2.2320    5.2850    8.6880 C   0  0  0  0  0  0  0  0  0  0  0  0
   -1.4360    5.4540    9.5860 O   0  0  0  0  0  0  0  0  0  0  0  0
   -3.3370    4.3190    8.7250 C   0  0  0  0  0  3  0  0  0  0  0  0
   -4.5460    4.6900    8.2900 C   0  0  0  0  0  3  0  0  0  0  0  0
   -5.7300    3.8200    8.4040 C   0  0  0  0  0  0  0  0  0  0  0  0
   -6.8060    4.1490    9.1960 C   0  0  0  0  0  3  0  0  0  0  0  0
   -7.9190    3.3250    9.2500 C   0  0  0  0  0  3  0  0  0  0  0  0
   -7.9500    2.1690    8.5190 C   0  0  0  0  0  0  0  0  0  0  0  0
   -6.8750    1.8310    7.7190 C   0  0  0  0  0  3  0  0  0  0  0  0
   -5.7580    2.6560    7.6750 C   0  0  0  0  0  3  0  0  0  0  0  0
   -9.0260    1.3270    8.5210 O   0  0  0  0  0  0  0  0  0  0  0  0
   -8.9700    0.1070    7.7930 C   0  0  0  0  0  1  0  0  0  0  0  0
   -2.1600    5.9320    7.5330 O   0  0  0  0  0  0  0  0  0  0  0  0
   -1.5640    7.2060    7.4970 C   0  0  1  0  0  3  0  0  0  0  0  0
   -0.3880    7.1920    6.5330 C   0  0  0  0  0  2  0  0  0  0  0  0
   -0.0410    8.5370    5.9210 C   0  0  0  0  0  1  0  0  0  0  0  0
   -2.6060    8.2140    7.0650 C   0  0  0  0  0  2  0  0  0  0  0  0
   -3.7350    7.6220    6.2860 C   0  0  0  0  0  2  0  0  0  0  0  0
   -3.4520    9.6330    4.8350 C   0  0  0  0  0  1  0  0  0  0  0  0
   -3.7920    8.1620    4.8860 C   0  0  0  0  0  2  0  0  0  0  0  0
  1  3  1  0  0  0  0
  1  2  2  0  0  0  0
  4  5  1  0  0  0  0
  4  3  2  0  0  0  0
  5  6  1  0  0  0  0
  6  7  2  0  0  0  0
  8 11  1  0  0  0  0
  8  7  1  0  0  0  0
  9  8  2  0  0  0  0
 10  9  1  0  0  0  0
 10  5  2  0  0  0  0
 12 11  1  0  0  0  0
 13  1  1  0  0  0  0
 14 15  1  6  0  0  0
 14 13  1  0  0  0  0
 16 15  1  0  0  0  0
 17 14  1  0  0  0  0
 18 17  1  0  0  0  0
 19 20  1  0  0  0  0
 20 18  1  0  0  0  0
M  END
>  <MODEL>
3

>  <REMARK>
 VINA RESULT:      -3.2      1.259      1.572
  Name = orig_f12_ligand
  12 active torsions:
  status: ('A' for Active; 'I' for Inactive)
    1  A    between atoms: C_1  and  C_2
    2  A    between atoms: C_2  and  C_3
    3  A    between atoms: C_3  and  C_4
    4  A    between atoms: C_4  and  C_5
    5  A    between atoms: C_5  and  C_6
    6  A    between atoms: C_5  and  O_8
    7  A    between atoms: C_6  and  C_7
    8  A    between atoms: O_8  and  C_9
    9  A    between atoms: C_9  and  C_11
   10  A    between atoms: C_12  and  C_13
   11  A    between atoms: C_16  and  O_17
   12  A    between atoms: O_17  and  C_18
                            x       y       z     vdW  Elec       q    Type
                         _______ _______ _______ _____ _____    ______ ____

>  <TORSDO>
F 9

$$$$
orig_f12_ligand
 OpenBabel10092621033D

 20 20  0  0  1  0  0  0  0  0999 V2000
   -2.5470    4.6950    9.0730 C   0  0  0  0  0  0  0  0  0  0  0  0
   -3.3120    4.2260    9.8870 O   0  0  0  0  0  0  0  0  0  0  0  0
   -2.8540    5.8390    8.2050 C   0  0  0  0  0  3  0  0  0  0  0  0
   -4.1110    6.0280    7.7910 C   0  0  0  0  0  3  0  0  0  0  0  0
   -4.4780    7.0800    6.8270 C   0  0  0  0  0  0  0  0  0  0  0  0
   -3.5990    7.5330    5.8690 C   0  0  0  0  0  3  0  0  0  0  0  0
   -3.9900    8.4970    4.9550 C   0  0  0  0  0  3  0  0  0  0  0  0
   -5.2560    9.0140    5.0040 C   0  0  0  0  0  0  0  0  0  0  0  0
   -6.1460    8.5640    5.9600 C   0  0  0  0  0  3  0  0  0  0  0  0
   -5.7470    7.6030    6.8810 C   0  0  0  0  0  3  0  0  0  0  0  0
   -5.7010    9.9540    4.1180 O   0  0  0  0  0  0  0  0  0  0  0  0
   -4.8600   10.3750    3.0510 C   0  0  0  0  0  1  0  0  0  0  0  0
   -1.3460    4.1860    8.8380 O   0  0  0  0  0  0  0  0  0  0  0  0
   -0.2140    4.8160    9.3900 C   0  0  1  0  0  3  0  0  0  0  0  0
    0.4270    3.9030   10.4230 C   0  0  0  0  0  2  0  0  0  0  0  0
    0.0790    4.2200   11.8660 C   0  0  0  0  0  1  0  0  0  0  0  0
    0.7540    5.1330    8.2710 C   0  0  0  0  0  2  0  0  0  0  0  0
    0.7540    6.5690    7.8590 C   0  0  0  0  0  2  0  0  0  0  0  0
    0.0040    8.1850    6.1110 C   0  0  0  0  0  1  0  0  0  0  0  0
    0.3080    6.7410    6.4350 C   0  0  0  0  0  2  0  0  0  0  0  0
  1  2  2  0  0  0  0
  3  1  1  0  0  0  0
  4  3  2  0  0  0  0
  5 10  1  0  0  0  0
  5  4  1  0  0  0  0
  6  5  2  0  0  0  0
  7  8  2  0  0  0  0
  7  6  1  0  0  0  0
  8  9  1  0  0  0  0
  9 10  2  0  0  0  0
 11  8  1  0  0  0  0
 12 11  1  0  0  0  0
 13  1  1  0  0  0  0
 13 14  1  0  0  0  0
 14 17  1  6  0  0  0
 14 15  1  0  0  0  0
 15 16  1  0  0  0  0
 18 17  1  0  0  0  0
 19 20  1  0  0  0  0
 20 18  1  0  0  0  0
M  END
>  <MODEL>
4

>  <REMARK>
 VINA RESULT:      -3.2      3.528      5.863
  Name = orig_f12_ligand
  12 active torsions:
  status: ('A' for Active; 'I' for Inactive)
    1  A    between atoms: C_1  and  C_2
    2  A    between atoms: C_2  and  C_3
    3  A    between atoms: C_3  and  C_4
    4  A    between atoms: C_4  and  C_5
    5  A    between atoms: C_5  and  C_6
    6  A    between atoms: C_5  and  O_8
    7  A    between atoms: C_6  and  C_7
    8  A    between atoms: O_8  and  C_9
    9  A    between atoms: C_9  and  C_11
   10  A    between atoms: C_12  and  C_13
   11  A    between atoms: C_16  and  O_17
   12  A    between atoms: O_17  and  C_18
                            x       y       z     vdW  Elec       q    Type
                         _______ _______ _______ _____ _____    ______ ____

>  <TORSDO>
F 9

$$$$
orig_f12_ligand
 OpenBabel10092621033D

 20 20  0  0  1  0  0  0  0  0999 V2000
   -2.8580    6.4660    8.3190 C   0  0  0  0  0  0  0  0  0  0  0  0
   -2.3050    7.1550    9.1490 O   0  0  0  0  0  0  0  0  0  0  0  0
   -3.6750    5.2860    8.6280 C   0  0  0  0  0  3  0  0  0  0  0  0
   -4.8260    5.0970    7.9720 C   0  0  0  0  0  3  0  0  0  0  0  0
   -5.7570    4.0050    8.3060 C   0  0  0  0  0  0  0  0  0  0  0  0
   -5.6030    2.7330    7.8030 C   0  0  0  0  0  3  0  0  0  0  0  0
   -6.4760    1.7210    8.1670 C   0  0  0  0  0  3  0  0  0  0  0  0
   -7.5080    1.9840    9.0260 C   0  0  0  0  0  0  0  0  0  0  0  0
   -7.6690    3.2580    9.5390 C   0  0  0  0  0  3  0  0  0  0  0  0
   -6.7970    4.2710    9.1630 C   0  0  0  0  0  3  0  0  0  0  0  0
   -8.3880    1.0230    9.4330 O   0  0  0  0  0  0  0  0  0  0  0  0
   -9.6080    0.8350    8.7260 C   0  0  0  0  0  1  0  0  0  0  0  0
   -2.7430    6.6790    7.0170 O   0  0  0  0  0  0  0  0  0  0  0  0
   -2.9850    7.9690    6.5070 C   0  0  1  0  0  3  0  0  0  0  0  0
   -1.6830    8.5750    6.0100 C   0  0  0  0  0  2  0  0  0  0  0  0
   -1.8150    9.9430    5.3650 C   0  0  0  0  0  1  0  0  0  0  0  0
   -3.9960    7.8620    5.3860 C   0  0  0  0  0  2  0  0  0  0  0  0
   -5.4040    8.1180    5.8150 C   0  0  0  0  0  2  0  0  0  0  0  0
   -6.5670    8.3550    8.0110 C   0  0  0  0  0  1  0  0  0  0  0  0
   -5.4650    8.8680    7.1150 C   0  0  0  0  0  2  0  0  0  0  0  0
  1  3  1  0  0  0  0
  1  2  2  0  0  0  0
  4  5  1  0  0  0  0
  4  3  2  0  0  0  0
  5 10  1  0  0  0  0
  6  7  1  0  0  0  0
  6  5  2  0  0  0  0
  7  8  2  0  0  0  0
  8 11  1  0  0  0  0
  8  9  1  0  0  0  0
 10  9  2  0  0  0  0
 12 11  1  0  0  0  0
 13  1  1  0  0  0  0
 14 17  1  6  0  0  0
 14 13  1  0  0  0  0
 15 14  1  0  0  0  0
 16 15  1  0  0  0  0
 17 18  1  0  0  0  0
 18 20  1  0  0  0  0
 20 19  1  0  0  0  0
M  END
>  <MODEL>
5

>  <REMARK>
 VINA RESULT:      -3.2      1.567      2.156
  Name = orig_f12_ligand
  12 active torsions:
  status: ('A' for Active; 'I' for Inactive)
    1  A    between atoms: C_1  and  C_2
    2  A    between atoms: C_2  and  C_3
    3  A    between atoms: C_3  and  C_4
    4  A    between atoms: C_4  and  C_5
    5  A    between atoms: C_5  and  C_6
    6  A    between atoms: C_5  and  O_8
    7  A    between atoms: C_6  and  C_7
    8  A    between atoms: O_8  and  C_9
    9  A    between atoms: C_9  and  C_11
   10  A    between atoms: C_12  and  C_13
   11  A    between atoms: C_16  and  O_17
   12  A    between atoms: O_17  and  C_18
                            x       y       z     vdW  Elec       q    Type
                         _______ _______ _______ _____ _____    ______ ____

>  <TORSDO>
F 9

$$$$
orig_f12_ligand
 OpenBabel10092621033D

 20 20  0  0  1  0  0  0  0  0999 V2000
   -3.8030    7.4160    6.2660 C   0  0  0  0  0  0  0  0  0  0  0  0
   -3.8040    7.4660    5.0550 O   0  0  0  0  0  0  0  0  0  0  0  0
   -4.8800    6.8320    7.0750 C   0  0  0  0  0  3  0  0  0  0  0  0
   -4.6660    5.6770    7.7150 C   0  0  0  0  0  3  0  0  0  0  0  0
   -5.7310    4.9700    8.4490 C   0  0  0  0  0  0  0  0  0  0  0  0
   -6.5810    5.6220    9.3130 C   0  0  0  0  0  3  0  0  0  0  0  0
   -7.5940    4.9320    9.9580 C   0  0  0  0  0  3  0  0  0  0  0  0
   -7.7500    3.5890    9.7450 C   0  0  0  0  0  0  0  0  0  0  0  0
   -6.9030    2.9270    8.8770 C   0  0  0  0  0  3  0  0  0  0  0  0
   -5.8830    3.6210    8.2400 C   0  0  0  0  0  3  0  0  0  0  0  0
   -8.7410    2.8610   10.3400 O   0  0  0  0  0  0  0  0  0  0  0  0
   -8.7110    1.4410   10.2780 C   0  0  0  0  0  1  0  0  0  0  0  0
   -2.8350    7.9360    7.0060 O   0  0  0  0  0  0  0  0  0  0  0  0
   -1.5310    7.4170    6.8950 C   0  0  1  0  0  3  0  0  0  0  0  0
   -0.5570    8.5430    6.5850 C   0  0  0  0  0  2  0  0  0  0  0  0
    0.6310    8.1480    5.7280 C   0  0  0  0  0  1  0  0  0  0  0  0
   -1.1720    6.7320    8.1950 C   0  0  0  0  0  2  0  0  0  0  0  0
   -1.0330    5.2490    8.0800 C   0  0  0  0  0  2  0  0  0  0  0  0
   -2.1420    5.4930   10.3020 C   0  0  0  0  0  1  0  0  0  0  0  0
   -1.4780    4.5470    9.3310 C   0  0  0  0  0  2  0  0  0  0  0  0
  1 13  1  0  0  0  0
  1  3  1  0  0  0  0
  2  1  2  0  0  0  0
  3  4  2  0  0  0  0
  4  5  1  0  0  0  0
  5  6  1  0  0  0  0
  6  7  2  0  0  0  0
  8  7  1  0  0  0  0
  8 11  1  0  0  0  0
  9  8  2  0  0  0  0
 10  5  2  0  0  0  0
 10  9  1  0  0  0  0
 12 11  1  0  0  0  0
 14 15  1  1  0  0  0
 14 13  1  0  0  0  0
 14 17  1  0  0  0  0
 16 15  1  0  0  0  0
 18 17  1  0  0  0  0
 18 20  1  0  0  0  0
 20 19  1  0  0  0  0
M  END
>  <MODEL>
6

>  <REMARK>
 VINA RESULT:      -3.1      1.782      2.911
  Name = orig_f12_ligand
  12 active torsions:
  status: ('A' for Active; 'I' for Inactive)
    1  A    between atoms: C_1  and  C_2
    2  A    between atoms: C_2  and  C_3
    3  A    between atoms: C_3  and  C_4
    4  A    between atoms: C_4  and  C_5
    5  A    between atoms: C_5  and  C_6
    6  A    between atoms: C_5  and  O_8
    7  A    between atoms: C_6  and  C_7
    8  A    between atoms: O_8  and  C_9
    9  A    between atoms: C_9  and  C_11
   10  A    between atoms: C_12  and  C_13
   11  A    between atoms: C_16  and  O_17
   12  A    between atoms: O_17  and  C_18
                            x       y       z     vdW  Elec       q    Type
                         _______ _______ _______ _____ _____    ______ ____

>  <TORSDO>
F 9

$$$$
orig_f12_ligand
 OpenBabel10092621033D

 20 20  0  0  1  0  0  0  0  0999 V2000
   -2.1290    5.0370    8.4460 C   0  0  0  0  0  0  0  0  0  0  0  0
   -1.9810    4.0320    9.1080 O   0  0  0  0  0  0  0  0  0  0  0  0
   -3.2860    5.9350    8.5450 C   0  0  0  0  0  3  0  0  0  0  0  0
   -4.1410    6.0170    7.5200 C   0  0  0  0  0  3  0  0  0  0  0  0
   -5.2570    6.9790    7.4940 C   0  0  0  0  0  0  0  0  0  0  0  0
   -5.5160    7.7710    6.3980 C   0  0  0  0  0  3  0  0  0  0  0  0
   -6.5960    8.6370    6.3950 C   0  0  0  0  0  3  0  0  0  0  0  0
   -7.4110    8.7180    7.4910 C   0  0  0  0  0  0  0  0  0  0  0  0
   -7.1620    7.9260    8.5950 C   0  0  0  0  0  3  0  0  0  0  0  0
   -6.0710    7.0650    8.5970 C   0  0  0  0  0  3  0  0  0  0  0  0
   -8.5000    9.5420    7.5370 O   0  0  0  0  0  0  0  0  0  0  0  0
   -9.5970    9.2190    8.3830 C   0  0  0  0  0  1  0  0  0  0  0  0
   -1.2720    5.4130    7.5090 O   0  0  0  0  0  0  0  0  0  0  0  0
   -0.4020    6.4900    7.7680 C   0  0  1  0  0  3  0  0  0  0  0  0
    0.9300    5.9610    8.2740 C   0  0  0  0  0  2  0  0  0  0  0  0
    1.8930    5.5030    7.1940 C   0  0  0  0  0  1  0  0  0  0  0  0
   -0.2210    7.2810    6.4900 C   0  0  0  0  0  2  0  0  0  0  0  0
   -1.4500    8.0060    6.0490 C   0  0  0  0  0  2  0  0  0  0  0  0
   -2.5150    9.5300    7.7150 C   0  0  0  0  0  1  0  0  0  0  0  0
   -1.5030    9.4030    6.6010 C   0  0  0  0  0  2  0  0  0  0  0  0
  1  3  1  0  0  0  0
  1  2  2  0  0  0  0
  4  3  2  0  0  0  0
  5  4  1  0  0  0  0
  5 10  1  0  0  0  0
  6  5  2  0  0  0  0
  7  6  1  0  0  0  0
  7  8  2  0  0  0  0
  8 11  1  0  0  0  0
  8  9  1  0  0  0  0
  9 10  2  0  0  0  0
 11 12  1  0  0  0  0
 13 14  1  0  0  0  0
 13  1  1  0  0  0  0
 14 17  1  6  0  0  0
 14 15  1  0  0  0  0
 16 15  1  0  0  0  0
 18 17  1  0  0  0  0
 18 20  1  0  0  0  0
 20 19  1  0  0  0  0
M  END
>  <MODEL>
7

>  <REMARK>
 VINA RESULT:      -3.1      3.414      4.283
  Name = orig_f12_ligand
  12 active torsions:
  status: ('A' for Active; 'I' for Inactive)
    1  A    between atoms: C_1  and  C_2
    2  A    between atoms: C_2  and  C_3
    3  A    between atoms: C_3  and  C_4
    4  A    between atoms: C_4  and  C_5
    5  A    between atoms: C_5  and  C_6
    6  A    between atoms: C_5  and  O_8
    7  A    between atoms: C_6  and  C_7
    8  A    between atoms: O_8  and  C_9
    9  A    between atoms: C_9  and  C_11
   10  A    between atoms: C_12  and  C_13
   11  A    between atoms: C_16  and  O_17
   12  A    between atoms: O_17  and  C_18
                            x       y       z     vdW  Elec       q    Type
                         _______ _______ _______ _____ _____    ______ ____

>  <TORSDO>
F 9

$$$$
orig_f12_ligand
 OpenBabel10092621033D

 20 20  0  0  1  0  0  0  0  0999 V2000
   -2.7500    4.7090    9.1910 C   0  0  0  0  0  0  0  0  0  0  0  0
   -2.2890    4.4050   10.2690 O   0  0  0  0  0  0  0  0  0  0  0  0
   -3.8900    4.0380    8.5540 C   0  0  0  0  0  3  0  0  0  0  0  0
   -5.0690    4.0080    9.1850 C   0  0  0  0  0  3  0  0  0  0  0  0
   -6.2250    3.2550    8.6680 C   0  0  0  0  0  0  0  0  0  0  0  0
   -7.4920    3.4150    9.1830 C   0  0  0  0  0  3  0  0  0  0  0  0
   -8.5620    2.7180    8.6470 C   0  0  0  0  0  3  0  0  0  0  0  0
   -8.3640    1.8550    7.6040 C   0  0  0  0  0  0  0  0  0  0  0  0
   -7.0970    1.6900    7.0790 C   0  0  0  0  0  3  0  0  0  0  0  0
   -6.0240    2.3840    7.6260 C   0  0  0  0  0  3  0  0  0  0  0  0
   -9.3850    1.1540    7.0260 O   0  0  0  0  0  0  0  0  0  0  0  0
   -9.3330   -0.2660    6.9850 C   0  0  0  0  0  1  0  0  0  0  0  0
   -2.2360    5.6670    8.4340 O   0  0  0  0  0  0  0  0  0  0  0  0
   -2.9280    6.8860    8.3050 C   0  0  1  0  0  3  0  0  0  0  0  0
   -2.4460    7.8620    9.3660 C   0  0  0  0  0  2  0  0  0  0  0  0
   -3.4160    8.1000   10.5090 C   0  0  0  0  0  1  0  0  0  0  0  0
   -2.6850    7.4330    6.9150 C   0  0  0  0  0  2  0  0  0  0  0  0
   -3.9290    7.6060    6.1070 C   0  0  0  0  0  2  0  0  0  0  0  0
   -6.2000    8.1650    6.9800 C   0  0  0  0  0  1  0  0  0  0  0  0
   -5.1420    7.0970    6.8330 C   0  0  0  0  0  2  0  0  0  0  0  0
  1  2  2  0  0  0  0
  3  4  2  0  0  0  0
  3  1  1  0  0  0  0
  5  6  1  0  0  0  0
  5  4  1  0  0  0  0
  7  6  2  0  0  0  0
  8  7  1  0  0  0  0
  9  8  2  0  0  0  0
  9 10  1  0  0  0  0
 10  5  2  0  0  0  0
 11  8  1  0  0  0  0
 12 11  1  0  0  0  0
 13  1  1  0  0  0  0
 14 17  1  6  0  0  0
 14 13  1  0  0  0  0
 14 15  1  0  0  0  0
 15 16  1  0  0  0  0
 18 20  1  0  0  0  0
 18 17  1  0  0  0  0
 20 19  1  0  0  0  0
M  END
>  <MODEL>
8

>  <REMARK>
 VINA RESULT:      -3.0      1.329      1.796
  Name = orig_f12_ligand
  12 active torsions:
  status: ('A' for Active; 'I' for Inactive)
    1  A    between atoms: C_1  and  C_2
    2  A    between atoms: C_2  and  C_3
    3  A    between atoms: C_3  and  C_4
    4  A    between atoms: C_4  and  C_5
    5  A    between atoms: C_5  and  C_6
    6  A    between atoms: C_5  and  O_8
    7  A    between atoms: C_6  and  C_7
    8  A    between atoms: O_8  and  C_9
    9  A    between atoms: C_9  and  C_11
   10  A    between atoms: C_12  and  C_13
   11  A    between atoms: C_16  and  O_17
   12  A    between atoms: O_17  and  C_18
                            x       y       z     vdW  Elec       q    Type
                         _______ _______ _______ _____ _____    ______ ____

>  <TORSDO>
F 9

$$$$
orig_f12_ligand
 OpenBabel10092621033D

 20 20  0  0  1  0  0  0  0  0999 V2000
   -4.0430    6.9530    7.6890 C   0  0  0  0  0  0  0  0  0  0  0  0
   -4.3390    7.9900    8.2420 O   0  0  0  0  0  0  0  0  0  0  0  0
   -4.9430    5.8030    7.5410 C   0  0  0  0  0  3  0  0  0  0  0  0
   -5.3190    5.1210    8.6290 C   0  0  0  0  0  3  0  0  0  0  0  0
   -6.1220    3.8880    8.5520 C   0  0  0  0  0  0  0  0  0  0  0  0
   -5.7350    2.8090    7.7900 C   0  0  0  0  0  3  0  0  0  0  0  0
   -6.4960    1.6520    7.7710 C   0  0  0  0  0  3  0  0  0  0  0  0
   -7.6480    1.5780    8.5060 C   0  0  0  0  0  0  0  0  0  0  0  0
   -8.0430    2.6560    9.2760 C   0  0  0  0  0  3  0  0  0  0  0  0
   -7.2820    3.8170    9.2840 C   0  0  0  0  0  3  0  0  0  0  0  0
   -8.4290    0.4580    8.5380 O   0  0  0  0  0  0  0  0  0  0  0  0
   -8.6620   -0.2770    7.3420 C   0  0  0  0  0  1  0  0  0  0  0  0
   -2.8360    6.7220    7.1920 O   0  0  0  0  0  0  0  0  0  0  0  0
   -1.7300    6.6900    8.0630 C   0  0  1  0  0  3  0  0  0  0  0  0
   -1.1200    5.2970    8.0620 C   0  0  0  0  0  2  0  0  0  0  0  0
   -1.5430    4.4090    9.2190 C   0  0  0  0  0  1  0  0  0  0  0  0
   -0.7240    7.7220    7.6030 C   0  0  0  0  0  2  0  0  0  0  0  0
   -0.6720    7.8960    6.1200 C   0  0  0  0  0  2  0  0  0  0  0  0
    1.6440    8.3730    5.3190 C   0  0  0  0  0  1  0  0  0  0  0  0
    0.3110    8.9600    5.7170 C   0  0  0  0  0  2  0  0  0  0  0  0
  1  2  2  0  0  0  0
  3  1  1  0  0  0  0
  3  4  2  0  0  0  0
  5  4  1  0  0  0  0
  5 10  1  0  0  0  0
  6  5  2  0  0  0  0
  7  6  1  0  0  0  0
  7  8  2  0  0  0  0
  8 11  1  0  0  0  0
  8  9  1  0  0  0  0
  9 10  2  0  0  0  0
 12 11  1  0  0  0  0
 13  1  1  0  0  0  0
 13 14  1  0  0  0  0
 14 17  1  6  0  0  0
 15 14  1  0  0  0  0
 15 16  1  0  0  0  0
 18 17  1  0  0  0  0
 19 20  1  0  0  0  0
 20 18  1  0  0  0  0
M  END
>  <MODEL>
9

>  <REMARK>
 VINA RESULT:      -2.9      1.598      3.337
  Name = orig_f12_ligand
  12 active torsions:
  status: ('A' for Active; 'I' for Inactive)
    1  A    between atoms: C_1  and  C_2
    2  A    between atoms: C_2  and  C_3
    3  A    between atoms: C_3  and  C_4
    4  A    between atoms: C_4  and  C_5
    5  A    between atoms: C_5  and  C_6
    6  A    between atoms: C_5  and  O_8
    7  A    between atoms: C_6  and  C_7
    8  A    between atoms: O_8  and  C_9
    9  A    between atoms: C_9  and  C_11
   10  A    between atoms: C_12  and  C_13
   11  A    between atoms: C_16  and  O_17
   12  A    between atoms: O_17  and  C_18
                            x       y       z     vdW  Elec       q    Type
                         _______ _______ _______ _____ _____    ______ ____

>  <TORSDO>
F 9

$$$$
