ox1_orig_f12_pose0_reference
     RDKit          3D

 17 18  0  0  0  0  0  0  0  0999 V2000
    3.7990   -0.2240   -4.2950 C   0  0  0  0  0  0  0  0  0  0  0  0
    2.7160   -0.7910   -3.5940 O   0  0  0  0  0  0  0  0  0  0  0  0
    1.8810    0.0120   -2.8640 C   0  0  0  0  0  0  0  0  0  0  0  0
    0.7830   -0.5770   -2.2460 C   0  0  0  0  0  0  0  0  0  0  0  0
   -0.0870    0.2000   -1.4940 C   0  0  0  0  0  0  0  0  0  0  0  0
    0.1340    1.5660   -1.3410 C   0  0  0  0  0  0  0  0  0  0  0  0
   -0.7980    2.4290   -0.5330 C   0  0  0  0  0  0  0  0  0  0  0  0
   -0.6170    3.6290   -0.5470 O   0  0  0  0  0  0  0  0  0  0  0  0
   -1.9390    1.8870    0.2400 C   0  0  0  0  0  0  0  0  0  0  0  0
   -1.8150    0.7450    1.0210 C   0  0  0  0  0  0  0  0  0  0  0  0
   -2.8920    0.2560    1.7250 C   0  0  0  0  0  0  0  0  0  0  0  0
   -4.1160    0.9030    1.6620 C   0  0  0  0  0  0  0  0  0  0  0  0
   -4.2520    2.0560    0.9010 C   0  0  0  0  0  0  0  0  0  0  0  0
   -3.1630    2.5690    0.2010 C   0  0  0  0  0  0  0  0  0  0  0  0
    1.2300    2.1500   -1.9670 C   0  0  0  0  0  0  0  0  0  0  0  0
    1.4330    3.4840   -1.8260 O   0  0  0  0  0  0  0  0  0  0  0  0
    2.0910    1.3730   -2.7250 C   0  0  0  0  0  0  0  0  0  0  0  0
  2  1  1  0
  3  2  1  0
  4  3  1  0
  5  4  2  0
  6  5  1  0
  7  6  1  0
  8  7  2  0
  9  7  1  0
 10  9  2  0
 11 10  1  0
 12 11  2  0
 13 12  1  0
 14 13  2  0
 14  9  1  0
 15  6  2  0
 16 15  1  0
 17 15  1  0
 17  3  2  0
M  END
>  <structure>  (1) 
ox1_orig_f12

>  <pose>  (1) 
0

>  <is_reference>  (1) 
1

>  <rmsd_to_reference_A>  (1) 
0.000

>  <vina_score>  (1) 


$$$$
ox1_orig_f12_pose1
     RDKit          3D

 17 18  0  0  0  0  0  0  0  0999 V2000
   -6.4750    1.2070    2.2670 C   0  0  0  0  0  0  0  0  0  0  0  0
   -5.1620    0.7850    2.5570 O   0  0  0  0  0  0  0  0  0  0  0  0
   -4.1050    1.3390    1.8870 C   0  0  0  0  0  0  0  0  0  0  0  0
   -2.8490    0.7680    2.0610 C   0  0  0  0  0  0  0  0  0  0  0  0
   -1.7500    1.2960    1.3980 C   0  0  0  0  0  0  0  0  0  0  0  0
   -1.8930    2.3900    0.5490 C   0  0  0  0  0  0  0  0  0  0  0  0
   -0.7150    2.9820   -0.1780 C   0  0  0  0  0  0  0  0  0  0  0  0
   -0.4290    4.1390    0.0520 O   0  0  0  0  0  0  0  0  0  0  0  0
    0.1260    2.2120   -1.1230 C   0  0  0  0  0  0  0  0  0  0  0  0
    0.0550    0.8270   -1.2000 C   0  0  0  0  0  0  0  0  0  0  0  0
    0.8520    0.1320   -2.0810 C   0  0  0  0  0  0  0  0  0  0  0  0
    1.7360    0.8110   -2.9050 C   0  0  0  0  0  0  0  0  0  0  0  0
    1.8050    2.1970   -2.8530 C   0  0  0  0  0  0  0  0  0  0  0  0
    0.9890    2.9100   -1.9790 C   0  0  0  0  0  0  0  0  0  0  0  0
   -3.1500    2.9610    0.3840 C   0  0  0  0  0  0  0  0  0  0  0  0
   -3.2820    4.0350   -0.4340 O   0  0  0  0  0  0  0  0  0  0  0  0
   -4.2430    2.4370    1.0550 C   0  0  0  0  0  0  0  0  0  0  0  0
  2  1  1  0
  3  2  1  0
  4  3  1  0
  5  4  2  0
  6  5  1  0
  7  6  1  0
  8  7  2  0
  9  7  1  0
 10  9  2  0
 11 10  1  0
 12 11  2  0
 13 12  1  0
 14 13  2  0
 14  9  1  0
 15  6  2  0
 16 15  1  0
 17 15  1  0
 17  3  2  0
M  END
>  <structure>  (2) 
ox1_orig_f12

>  <pose>  (2) 
1

>  <is_reference>  (2) 
0

>  <rmsd_to_reference_A>  (2) 
6.160

>  <vina_score>  (2) 
-5.8

$$$$
ox1_orig_f12_pose2
     RDKit          3D

 17 18  0  0  0  0  0  0  0  0999 V2000
   -0.8740    2.9250   -0.4230 C   0  0  0  0  0  0  0  0  0  0  0  0
   -1.2820    1.8380    0.3740 O   0  0  0  0  0  0  0  0  0  0  0  0
   -2.5180    1.8500    0.9640 C   0  0  0  0  0  0  0  0  0  0  0  0
   -3.3830    0.7960    0.6910 C   0  0  0  0  0  0  0  0  0  0  0  0
   -4.6440    0.7680    1.2700 C   0  0  0  0  0  0  0  0  0  0  0  0
   -5.0500    1.7810    2.1340 C   0  0  0  0  0  0  0  0  0  0  0  0
   -6.4140    1.7730    2.7700 C   0  0  0  0  0  0  0  0  0  0  0  0
   -6.7960    2.7920    3.3080 O   0  0  0  0  0  0  0  0  0  0  0  0
   -7.3180    0.6010    2.7370 C   0  0  0  0  0  0  0  0  0  0  0  0
   -7.2470   -0.4030    3.6940 C   0  0  0  0  0  0  0  0  0  0  0  0
   -8.0930   -1.4880    3.6380 C   0  0  0  0  0  0  0  0  0  0  0  0
   -9.0290   -1.5870    2.6200 C   0  0  0  0  0  0  0  0  0  0  0  0
   -9.1260   -0.5840    1.6660 C   0  0  0  0  0  0  0  0  0  0  0  0
   -8.2870    0.5260    1.7270 C   0  0  0  0  0  0  0  0  0  0  0  0
   -4.1830    2.8360    2.3970 C   0  0  0  0  0  0  0  0  0  0  0  0
   -4.5890    3.8280    3.2280 O   0  0  0  0  0  0  0  0  0  0  0  0
   -2.9290    2.8660    1.8090 C   0  0  0  0  0  0  0  0  0  0  0  0
  2  1  1  0
  3  2  1  0
  4  3  1  0
  5  4  2  0
  6  5  1  0
  7  6  1  0
  8  7  2  0
  9  7  1  0
 10  9  2  0
 11 10  1  0
 12 11  2  0
 13 12  1  0
 14 13  2  0
 14  9  1  0
 15  6  2  0
 16 15  1  0
 17 15  1  0
 17  3  2  0
M  END
>  <structure>  (3) 
ox1_orig_f12

>  <pose>  (3) 
2

>  <is_reference>  (3) 
0

>  <rmsd_to_reference_A>  (3) 
6.313

>  <vina_score>  (3) 
-5.6

$$$$
ox1_orig_f12_pose3
     RDKit          3D

 17 18  0  0  0  0  0  0  0  0999 V2000
    2.6810    2.3090   -3.6480 C   0  0  0  0  0  0  0  0  0  0  0  0
    1.5680    3.0060   -3.1380 O   0  0  0  0  0  0  0  0  0  0  0  0
    0.7940    2.4360   -2.1630 C   0  0  0  0  0  0  0  0  0  0  0  0
    0.1900    3.2770   -1.2340 C   0  0  0  0  0  0  0  0  0  0  0  0
   -0.6050    2.7410   -0.2300 C   0  0  0  0  0  0  0  0  0  0  0  0
   -0.8150    1.3670   -0.1490 C   0  0  0  0  0  0  0  0  0  0  0  0
   -1.6700    0.7630    0.9320 C   0  0  0  0  0  0  0  0  0  0  0  0
   -1.2870   -0.2640    1.4530 O   0  0  0  0  0  0  0  0  0  0  0  0
   -2.9270    1.3820    1.4120 C   0  0  0  0  0  0  0  0  0  0  0  0
   -4.1670    0.9920    0.9200 C   0  0  0  0  0  0  0  0  0  0  0  0
   -5.3210    1.5870    1.3760 C   0  0  0  0  0  0  0  0  0  0  0  0
   -5.2570    2.5840    2.3360 C   0  0  0  0  0  0  0  0  0  0  0  0
   -4.0280    2.9720    2.8520 C   0  0  0  0  0  0  0  0  0  0  0  0
   -2.8560    2.3620    2.4110 C   0  0  0  0  0  0  0  0  0  0  0  0
   -0.2020    0.5310   -1.0770 C   0  0  0  0  0  0  0  0  0  0  0  0
   -0.3990   -0.8080   -0.9860 O   0  0  0  0  0  0  0  0  0  0  0  0
    0.5990    1.0690   -2.0720 C   0  0  0  0  0  0  0  0  0  0  0  0
  2  1  1  0
  3  2  1  0
  4  3  1  0
  5  4  2  0
  6  5  1  0
  7  6  1  0
  8  7  2  0
  9  7  1  0
 10  9  2  0
 11 10  1  0
 12 11  2  0
 13 12  1  0
 14 13  2  0
 14  9  1  0
 15  6  2  0
 16 15  1  0
 17 15  1  0
 17  3  2  0
M  END
>  <structure>  (4) 
ox1_orig_f12

>  <pose>  (4) 
3

>  <is_reference>  (4) 
0

>  <rmsd_to_reference_A>  (4) 
2.899

>  <vina_score>  (4) 
-5.6

$$$$
ox1_orig_f12_pose4
     RDKit          3D

 17 18  0  0  0  0  0  0  0  0999 V2000
   -5.4200    4.6590    3.2530 C   0  0  0  0  0  0  0  0  0  0  0  0
   -5.5760    3.3000    2.9160 O   0  0  0  0  0  0  0  0  0  0  0  0
   -4.5610    2.6330    2.2840 C   0  0  0  0  0  0  0  0  0  0  0  0
   -4.5640    2.6050    0.8930 C   0  0  0  0  0  0  0  0  0  0  0  0
   -3.5510    1.9430    0.2130 C   0  0  0  0  0  0  0  0  0  0  0  0
   -2.5230    1.3130    0.9090 C   0  0  0  0  0  0  0  0  0  0  0  0
   -1.4160    0.5870    0.1920 C   0  0  0  0  0  0  0  0  0  0  0  0
   -1.3400   -0.6160    0.3350 O   0  0  0  0  0  0  0  0  0  0  0  0
   -0.4500    1.2620   -0.7040 C   0  0  0  0  0  0  0  0  0  0  0  0
    0.4140    0.5440   -1.5210 C   0  0  0  0  0  0  0  0  0  0  0  0
    1.3090    1.1950   -2.3390 C   0  0  0  0  0  0  0  0  0  0  0  0
    1.3560    2.5800   -2.3570 C   0  0  0  0  0  0  0  0  0  0  0  0
    0.4870    3.3130   -1.5610 C   0  0  0  0  0  0  0  0  0  0  0  0
   -0.4350    2.6630   -0.7440 C   0  0  0  0  0  0  0  0  0  0  0  0
   -2.5300    1.3390    2.2990 C   0  0  0  0  0  0  0  0  0  0  0  0
   -1.5320    0.7130    2.9720 O   0  0  0  0  0  0  0  0  0  0  0  0
   -3.5470    1.9930    2.9750 C   0  0  0  0  0  0  0  0  0  0  0  0
  2  1  1  0
  3  2  1  0
  4  3  1  0
  5  4  2  0
  6  5  1  0
  7  6  1  0
  8  7  2  0
  9  7  1  0
 10  9  2  0
 11 10  1  0
 12 11  2  0
 13 12  1  0
 14 13  2  0
 14  9  1  0
 15  6  2  0
 16 15  1  0
 17 15  1  0
 17  3  2  0
M  END
>  <structure>  (5) 
ox1_orig_f12

>  <pose>  (5) 
4

>  <is_reference>  (5) 
0

>  <rmsd_to_reference_A>  (5) 
6.622

>  <vina_score>  (5) 
-5.1

$$$$
ox1_orig_f12_pose5
     RDKit          3D

 17 18  0  0  0  0  0  0  0  0999 V2000
   -8.8150    1.2090    9.8700 C   0  0  0  0  0  0  0  0  0  0  0  0
   -9.4500    1.6860    8.7060 O   0  0  0  0  0  0  0  0  0  0  0  0
   -9.0350    1.2510    7.4750 C   0  0  0  0  0  0  0  0  0  0  0  0
   -8.3810    0.0260    7.4020 C   0  0  0  0  0  0  0  0  0  0  0  0
   -7.9460   -0.4540    6.1740 C   0  0  0  0  0  0  0  0  0  0  0  0
   -8.1680    0.2760    5.0090 C   0  0  0  0  0  0  0  0  0  0  0  0
   -7.7020   -0.2230    3.6670 C   0  0  0  0  0  0  0  0  0  0  0  0
   -6.7290    0.3050    3.1710 O   0  0  0  0  0  0  0  0  0  0  0  0
   -8.3510   -1.3450    2.9500 C   0  0  0  0  0  0  0  0  0  0  0  0
   -8.1340   -2.6670    3.3150 C   0  0  0  0  0  0  0  0  0  0  0  0
   -8.7420   -3.6940    2.6280 C   0  0  0  0  0  0  0  0  0  0  0  0
   -9.5820   -3.4150    1.5610 C   0  0  0  0  0  0  0  0  0  0  0  0
   -9.8240   -2.0980    1.1950 C   0  0  0  0  0  0  0  0  0  0  0  0
   -9.2280   -1.0530    1.8970 C   0  0  0  0  0  0  0  0  0  0  0  0
   -8.8160    1.5030    5.0900 C   0  0  0  0  0  0  0  0  0  0  0  0
   -9.0180    2.2160    3.9540 O   0  0  0  0  0  0  0  0  0  0  0  0
   -9.2400    1.9830    6.3190 C   0  0  0  0  0  0  0  0  0  0  0  0
  2  1  1  0
  3  2  1  0
  4  3  1  0
  5  4  2  0
  6  5  1  0
  7  6  1  0
  8  7  2  0
  9  7  1  0
 10  9  2  0
 11 10  1  0
 12 11  2  0
 13 12  1  0
 14 13  2  0
 14  9  1  0
 15  6  2  0
 16 15  1  0
 17 15  1  0
 17  3  2  0
M  END
>  <structure>  (6) 
ox1_orig_f12

>  <pose>  (6) 
5

>  <is_reference>  (6) 
0

>  <rmsd_to_reference_A>  (6) 
11.532

>  <vina_score>  (6) 
-4.6

$$$$
ox1_orig_f12_pose6
     RDKit          3D

 17 18  0  0  0  0  0  0  0  0999 V2000
  -10.1820   -4.9540    0.2490 C   0  0  0  0  0  0  0  0  0  0  0  0
  -10.5060   -3.5830    0.2210 O   0  0  0  0  0  0  0  0  0  0  0  0
   -9.8550   -2.7110    1.0520 C   0  0  0  0  0  0  0  0  0  0  0  0
   -9.1320   -3.2390    2.1160 C   0  0  0  0  0  0  0  0  0  0  0  0
   -8.4540   -2.3910    2.9810 C   0  0  0  0  0  0  0  0  0  0  0  0
   -8.4820   -1.0130    2.7890 C   0  0  0  0  0  0  0  0  0  0  0  0
   -7.7580   -0.0730    3.7160 C   0  0  0  0  0  0  0  0  0  0  0  0
   -6.7660    0.4870    3.2960 O   0  0  0  0  0  0  0  0  0  0  0  0
   -8.2190    0.2240    5.0910 C   0  0  0  0  0  0  0  0  0  0  0  0
   -7.7960   -0.5250    6.1810 C   0  0  0  0  0  0  0  0  0  0  0  0
   -8.2450   -0.2340    7.4500 C   0  0  0  0  0  0  0  0  0  0  0  0
   -9.1270    0.8160    7.6510 C   0  0  0  0  0  0  0  0  0  0  0  0
   -9.5450    1.5860    6.5750 C   0  0  0  0  0  0  0  0  0  0  0  0
   -9.0810    1.3110    5.2910 C   0  0  0  0  0  0  0  0  0  0  0  0
   -9.2130   -0.4910    1.7270 C   0  0  0  0  0  0  0  0  0  0  0  0
   -9.2470    0.8540    1.5520 O   0  0  0  0  0  0  0  0  0  0  0  0
   -9.8960   -1.3400    0.8710 C   0  0  0  0  0  0  0  0  0  0  0  0
  2  1  1  0
  3  2  1  0
  4  3  1  0
  5  4  2  0
  6  5  1  0
  7  6  1  0
  8  7  2  0
  9  7  1  0
 10  9  2  0
 11 10  1  0
 12 11  2  0
 13 12  1  0
 14 13  2  0
 14  9  1  0
 15  6  2  0
 16 15  1  0
 17 15  1  0
 17  3  2  0
M  END
>  <structure>  (7) 
ox1_orig_f12

>  <pose>  (7) 
6

>  <is_reference>  (7) 
0

>  <rmsd_to_reference_A>  (7) 
10.437

>  <vina_score>  (7) 
-4.6

$$$$
ox1_orig_f12_pose7
     RDKit          3D

 17 18  0  0  0  0  0  0  0  0999 V2000
   -8.9140    0.0730    1.7430 C   0  0  0  0  0  0  0  0  0  0  0  0
   -9.7600   -1.0440    1.6000 O   0  0  0  0  0  0  0  0  0  0  0  0
   -9.3260   -2.2830    1.9890 C   0  0  0  0  0  0  0  0  0  0  0  0
   -8.5550   -2.3720    3.1440 C   0  0  0  0  0  0  0  0  0  0  0  0
   -8.0970   -3.6080    3.5760 C   0  0  0  0  0  0  0  0  0  0  0  0
   -8.4110   -4.7670    2.8710 C   0  0  0  0  0  0  0  0  0  0  0  0
   -7.9230   -6.1190    3.3200 C   0  0  0  0  0  0  0  0  0  0  0  0
   -8.7210   -6.8660    3.8460 O   0  0  0  0  0  0  0  0  0  0  0  0
   -6.5330   -6.5880    3.1130 C   0  0  0  0  0  0  0  0  0  0  0  0
   -5.4920   -6.1670    3.9300 C   0  0  0  0  0  0  0  0  0  0  0  0
   -4.2070   -6.6110    3.7140 C   0  0  0  0  0  0  0  0  0  0  0  0
   -3.9400   -7.4880    2.6750 C   0  0  0  0  0  0  0  0  0  0  0  0
   -4.9720   -7.9330    1.8610 C   0  0  0  0  0  0  0  0  0  0  0  0
   -6.2780   -7.5050    2.0840 C   0  0  0  0  0  0  0  0  0  0  0  0
   -9.1770   -4.6710    1.7140 C   0  0  0  0  0  0  0  0  0  0  0  0
   -9.4690   -5.8010    1.0240 O   0  0  0  0  0  0  0  0  0  0  0  0
   -9.6240   -3.4330    1.2800 C   0  0  0  0  0  0  0  0  0  0  0  0
  2  1  1  0
  3  2  1  0
  4  3  1  0
  5  4  2  0
  6  5  1  0
  7  6  1  0
  8  7  2  0
  9  7  1  0
 10  9  2  0
 11 10  1  0
 12 11  2  0
 13 12  1  0
 14 13  2  0
 14  9  1  0
 15  6  2  0
 16 15  1  0
 17 15  1  0
 17  3  2  0
M  END
>  <structure>  (8) 
ox1_orig_f12

>  <pose>  (8) 
7

>  <is_reference>  (8) 
0

>  <rmsd_to_reference_A>  (8) 
11.614

>  <vina_score>  (8) 
-4.4

$$$$
ox1_orig_f12_pose8
     RDKit          3D

 17 18  0  0  0  0  0  0  0  0999 V2000
   -3.7260    0.6700    2.0150 C   0  0  0  0  0  0  0  0  0  0  0  0
   -2.5910   -0.0230    1.5490 O   0  0  0  0  0  0  0  0  0  0  0  0
   -1.7120    0.5980    0.7040 C   0  0  0  0  0  0  0  0  0  0  0  0
   -1.0940   -0.1700   -0.2770 C   0  0  0  0  0  0  0  0  0  0  0  0
   -0.1980    0.4210   -1.1570 C   0  0  0  0  0  0  0  0  0  0  0  0
    0.0830    1.7820   -1.0760 C   0  0  0  0  0  0  0  0  0  0  0  0
    1.0540    2.4440   -2.0170 C   0  0  0  0  0  0  0  0  0  0  0  0
    1.0240    3.6540   -2.1050 O   0  0  0  0  0  0  0  0  0  0  0  0
    2.0600    1.6940   -2.8030 C   0  0  0  0  0  0  0  0  0  0  0  0
    2.4090    0.3880   -2.4840 C   0  0  0  0  0  0  0  0  0  0  0  0
    3.3530   -0.2870   -3.2250 C   0  0  0  0  0  0  0  0  0  0  0  0
    3.9650    0.3340   -4.3030 C   0  0  0  0  0  0  0  0  0  0  0  0
    3.6140    1.6320   -4.6460 C   0  0  0  0  0  0  0  0  0  0  0  0
    2.6460    2.3160   -3.9140 C   0  0  0  0  0  0  0  0  0  0  0  0
   -0.5340    2.5440   -0.0880 C   0  0  0  0  0  0  0  0  0  0  0  0
   -0.2470    3.8670   -0.0050 O   0  0  0  0  0  0  0  0  0  0  0  0
   -1.4200    1.9480    0.7940 C   0  0  0  0  0  0  0  0  0  0  0  0
  2  1  1  0
  3  2  1  0
  4  3  1  0
  5  4  2  0
  6  5  1  0
  7  6  1  0
  8  7  2  0
  9  7  1  0
 10  9  2  0
 11 10  1  0
 12 11  2  0
 13 12  1  0
 14 13  2  0
 14  9  1  0
 15  6  2  0
 16 15  1  0
 17 15  1  0
 17  3  2  0
M  END
>  <structure>  (9) 
ox1_orig_f12

>  <pose>  (9) 
8

>  <is_reference>  (9) 
0

>  <rmsd_to_reference_A>  (9) 
5.937

>  <vina_score>  (9) 
-4.4

$$$$
ox1_orig_f12_pose9
     RDKit          3D

 17 18  0  0  0  0  0  0  0  0999 V2000
   -1.7450   -7.9140    3.8180 C   0  0  0  0  0  0  0  0  0  0  0  0
   -2.6170   -8.0500    2.7190 O   0  0  0  0  0  0  0  0  0  0  0  0
   -3.9190   -7.6400    2.8260 C   0  0  0  0  0  0  0  0  0  0  0  0
   -4.2380   -6.7350    3.8330 C   0  0  0  0  0  0  0  0  0  0  0  0
   -5.5450   -6.2910    3.9760 C   0  0  0  0  0  0  0  0  0  0  0  0
   -6.5420   -6.7330    3.1110 C   0  0  0  0  0  0  0  0  0  0  0  0
   -7.9670   -6.2670    3.2480 C   0  0  0  0  0  0  0  0  0  0  0  0
   -8.7600   -7.0140    3.7850 O   0  0  0  0  0  0  0  0  0  0  0  0
   -8.4320   -4.9360    2.7960 C   0  0  0  0  0  0  0  0  0  0  0  0
   -8.1050   -3.7760    3.4860 C   0  0  0  0  0  0  0  0  0  0  0  0
   -8.5550   -2.5500    3.0510 C   0  0  0  0  0  0  0  0  0  0  0  0
   -9.3410   -2.4620    1.9130 C   0  0  0  0  0  0  0  0  0  0  0  0
   -9.6620   -3.6090    1.2020 C   0  0  0  0  0  0  0  0  0  0  0  0
   -9.1950   -4.8520    1.6240 C   0  0  0  0  0  0  0  0  0  0  0  0
   -6.2180   -7.6430    2.1100 C   0  0  0  0  0  0  0  0  0  0  0  0
   -7.1960   -8.0810    1.2790 O   0  0  0  0  0  0  0  0  0  0  0  0
   -4.9140   -8.0920    1.9770 C   0  0  0  0  0  0  0  0  0  0  0  0
  2  1  1  0
  3  2  1  0
  4  3  1  0
  5  4  2  0
  6  5  1  0
  7  6  1  0
  8  7  2  0
  9  7  1  0
 10  9  2  0
 11 10  1  0
 12 11  2  0
 13 12  1  0
 14 13  2  0
 14  9  1  0
 15  6  2  0
 16 15  1  0
 17 15  1  0
 17  3  2  0
M  END
>  <structure>  (10) 
ox1_orig_f12

>  <pose>  (10) 
9

>  <is_reference>  (10) 
0

>  <rmsd_to_reference_A>  (10) 
10.899

>  <vina_score>  (10) 
-4.3

$$$$
