ox1_orig_f12_pose0_reference
     RDKit          3D

 17 18  0  0  0  0  0  0  0  0999 V2000
    3.7990   -0.2240   -4.2950 C   0  0  0  0  0  0  0  0  0  0  0  0
    2.7160   -0.7910   -3.5940 O   0  0  0  0  0  0  0  0  0  0  0  0
    1.8810    0.0120   -2.8640 C   0  0  0  0  0  0  0  0  0  0  0  0
    0.7830   -0.5770   -2.2460 C   0  0  0  0  0  0  0  0  0  0  0  0
   -0.0870    0.2000   -1.4940 C   0  0  0  0  0  0  0  0  0  0  0  0
    0.1340    1.5660   -1.3410 C   0  0  0  0  0  0  0  0  0  0  0  0
   -0.7980    2.4290   -0.5330 C   0  0  0  0  0  0  0  0  0  0  0  0
   -0.6170    3.6290   -0.5470 O   0  0  0  0  0  0  0  0  0  0  0  0
   -1.9390    1.8870    0.2400 C   0  0  0  0  0  0  0  0  0  0  0  0
   -1.8150    0.7450    1.0210 C   0  0  0  0  0  0  0  0  0  0  0  0
   -2.8920    0.2560    1.7250 C   0  0  0  0  0  0  0  0  0  0  0  0
   -4.1160    0.9030    1.6620 C   0  0  0  0  0  0  0  0  0  0  0  0
   -4.2520    2.0560    0.9010 C   0  0  0  0  0  0  0  0  0  0  0  0
   -3.1630    2.5690    0.2010 C   0  0  0  0  0  0  0  0  0  0  0  0
    1.2300    2.1500   -1.9670 C   0  0  0  0  0  0  0  0  0  0  0  0
    1.4330    3.4840   -1.8260 O   0  0  0  0  0  0  0  0  0  0  0  0
    2.0910    1.3730   -2.7250 C   0  0  0  0  0  0  0  0  0  0  0  0
  2  1  1  0
  3  2  1  0
  4  3  1  0
  5  4  2  0
  6  5  1  0
  7  6  1  0
  8  7  2  0
  9  7  1  0
 10  9  2  0
 11 10  1  0
 12 11  2  0
 13 12  1  0
 14 13  2  0
 14  9  1  0
 15  6  2  0
 16 15  1  0
 17 15  1  0
 17  3  2  0
M  END
>  <structure>  (1) 
ox1_orig_f12

>  <pose>  (1) 
0

>  <is_reference>  (1) 
1

>  <rmsd_to_reference_A>  (1) 
0.000

>  <vina_score>  (1) 


$$$$
