bgox31_5_ligand
 OpenBabel10092621253D

 18 19  0  0  0  0  0  0  0  0999 V2000
   10.9340    3.5020    2.5800 C   0  0  0  0  0  0  0  0  0  0  0  0
   10.1510    4.2520    1.7620 C   0  0  0  0  0  3  0  0  0  0  0  0
    9.0300    3.6590    1.1420 C   0  0  0  0  0  3  0  0  0  0  0  0
    8.6940    2.3320    1.3180 C   0  0  0  0  0  0  0  0  0  0  0  0
    9.5050    1.5610    2.1460 C   0  0  0  0  0  0  0  0  0  0  0  0
   10.6370    2.1440    2.7780 C   0  0  0  0  0  3  0  0  0  0  0  0
   12.2100    4.3750    4.5660 C   0  0  0  0  0  1  0  0  0  0  0  0
   12.0390    4.2470    3.1250 O   0  0  0  0  0  0  0  0  0  0  0  0
    7.5460    1.7880    0.6360 C   0  0  0  0  0  0  0  0  0  0  0  0
    6.8110    1.0010    1.2470 O   0  0  0  0  0  0  0  0  0  0  0  0
    7.3150    2.0840   -0.8130 C   0  0  0  0  0  0  0  0  0  0  0  0
    8.0940    1.5920   -1.8460 C   0  0  0  0  0  3  0  0  0  0  0  0
    7.8180    1.9190   -3.2020 C   0  0  0  0  0  3  0  0  0  0  0  0
    6.7720    2.7170   -3.5550 C   0  0  0  0  0  3  0  0  0  0  0  0
    5.9590    3.2060   -2.5600 C   0  0  0  0  0  3  0  0  0  0  0  0
    6.2610    2.9050   -1.2110 C   0  0  0  0  0  3  0  0  0  0  0  0
    9.1990    0.2570    2.3530 O   0  0  0  0  0  0  0  0  0  0  0  0
    8.2630   -0.0100    2.5330 H   0  0  0  0  0  0  0  0  0  0  0  0
  1  6  1  0  0  0  0
  1  8  1  0  0  0  0
  2  1  2  0  0  0  0
  3  4  2  0  0  0  0
  3  2  1  0  0  0  0
  4  5  1  0  0  0  0
  5 17  1  0  0  0  0
  5  6  2  0  0  0  0
  8  7  1  0  0  0  0
  9 10  2  0  0  0  0
  9  4  1  0  0  0  0
 11  9  1  0  0  0  0
 12 11  2  0  0  0  0
 13 12  1  0  0  0  0
 14 13  2  0  0  0  0
 14 15  1  0  0  0  0
 15 16  2  0  0  0  0
 16 11  1  0  0  0  0
 17 18  1  0  0  0  0
M  END
>  <MODEL>
1

>  <REMARK>
 VINA RESULT:      -5.2      0.000      0.000
  Name = bgox31_5_ligand
  5 active torsions:
  status: ('A' for Active; 'I' for Inactive)
    1  A    between atoms: C_1  and  O_2
    2  A    between atoms: O_2  and  C_3
    3  A    between atoms: C_6  and  C_7
    4  A    between atoms: C_7  and  C_9
    5  A    between atoms: C_15  and  O_16
                            x       y       z     vdW  Elec       q    Type
                         _______ _______ _______ _____ _____    ______ ____

>  <TORSDO>
F 4

$$$$
bgox31_5_ligand
 OpenBabel10092621253D

 18 19  0  0  0  0  0  0  0  0999 V2000
    6.7760    2.9350   -3.5940 C   0  0  0  0  0  0  0  0  0  0  0  0
    6.0870    3.4390   -2.5370 C   0  0  0  0  0  3  0  0  0  0  0  0
    6.3830    2.9790   -1.2360 C   0  0  0  0  0  3  0  0  0  0  0  0
    7.3420    2.0190   -0.9830 C   0  0  0  0  0  0  0  0  0  0  0  0
    8.0390    1.4950   -2.0680 C   0  0  0  0  0  0  0  0  0  0  0  0
    7.7520    1.9480   -3.3840 C   0  0  0  0  0  3  0  0  0  0  0  0
    6.3810    4.9370   -5.0670 C   0  0  0  0  0  1  0  0  0  0  0  0
    6.3510    3.4970   -4.8490 O   0  0  0  0  0  0  0  0  0  0  0  0
    7.5770    1.5810    0.3720 C   0  0  0  0  0  0  0  0  0  0  0  0
    6.7340    0.8570    0.9160 O   0  0  0  0  0  0  0  0  0  0  0  0
    8.7630    2.0840    1.1350 C   0  0  0  0  0  0  0  0  0  0  0  0
    9.4520    1.3470    2.0820 C   0  0  0  0  0  3  0  0  0  0  0  0
   10.5700    1.8900    2.7740 C   0  0  0  0  0  3  0  0  0  0  0  0
   11.0260    3.1510    2.5310 C   0  0  0  0  0  3  0  0  0  0  0  0
   10.3840    3.9060    1.5800 C   0  0  0  0  0  3  0  0  0  0  0  0
    9.2510    3.3710    0.9220 C   0  0  0  0  0  3  0  0  0  0  0  0
    8.9970    0.5600   -1.8570 O   0  0  0  0  0  0  0  0  0  0  0  0
    9.7360    0.7410   -1.2230 H   0  0  0  0  0  0  0  0  0  0  0  0
  1  6  2  0  0  0  0
  1  2  1  0  0  0  0
  2  3  2  0  0  0  0
  3  4  1  0  0  0  0
  4  9  1  0  0  0  0
  5 17  1  0  0  0  0
  5  4  2  0  0  0  0
  6  5  1  0  0  0  0
  7  8  1  0  0  0  0
  8  1  1  0  0  0  0
  9 10  2  0  0  0  0
  9 11  1  0  0  0  0
 11 12  1  0  0  0  0
 12 13  2  0  0  0  0
 14 13  1  0  0  0  0
 15 14  2  0  0  0  0
 16 11  2  0  0  0  0
 16 15  1  0  0  0  0
 17 18  1  0  0  0  0
M  END
>  <MODEL>
2

>  <REMARK>
 VINA RESULT:      -4.9      1.983      5.903
  Name = bgox31_5_ligand
  5 active torsions:
  status: ('A' for Active; 'I' for Inactive)
    1  A    between atoms: C_1  and  O_2
    2  A    between atoms: O_2  and  C_3
    3  A    between atoms: C_6  and  C_7
    4  A    between atoms: C_7  and  C_9
    5  A    between atoms: C_15  and  O_16
                            x       y       z     vdW  Elec       q    Type
                         _______ _______ _______ _____ _____    ______ ____

>  <TORSDO>
F 4

$$$$
bgox31_5_ligand
 OpenBabel10092621253D

 18 19  0  0  0  0  0  0  0  0999 V2000
    8.6820    1.7950    0.9090 C   0  0  0  0  0  0  0  0  0  0  0  0
    7.7200    2.7430    1.0530 C   0  0  0  0  0  3  0  0  0  0  0  0
    6.9500    3.1240   -0.0660 C   0  0  0  0  0  3  0  0  0  0  0  0
    7.1390    2.5820   -1.3220 C   0  0  0  0  0  0  0  0  0  0  0  0
    8.1340    1.6200   -1.4720 C   0  0  0  0  0  0  0  0  0  0  0  0
    8.9180    1.2260   -0.3520 C   0  0  0  0  0  3  0  0  0  0  0  0
   10.3740    0.4620    2.2110 C   0  0  0  0  0  1  0  0  0  0  0  0
    9.3830    1.5270    2.1380 O   0  0  0  0  0  0  0  0  0  0  0  0
    6.3280    3.0340   -2.4260 C   0  0  0  0  0  0  0  0  0  0  0  0
    5.3260    2.3760   -2.7340 O   0  0  0  0  0  0  0  0  0  0  0  0
    6.7550    4.2100   -3.2470 C   0  0  0  0  0  0  0  0  0  0  0  0
    7.8320    5.0260   -2.9450 C   0  0  0  0  0  3  0  0  0  0  0  0
    8.1790    6.1300   -3.7690 C   0  0  0  0  0  3  0  0  0  0  0  0
    7.4830    6.4340   -4.9000 C   0  0  0  0  0  3  0  0  0  0  0  0
    6.4220    5.6340   -5.2500 C   0  0  0  0  0  3  0  0  0  0  0  0
    6.0620    4.5580   -4.4040 C   0  0  0  0  0  3  0  0  0  0  0  0
    8.3400    1.0560   -2.6860 O   0  0  0  0  0  0  0  0  0  0  0  0
    9.2610    0.9480   -3.0330 H   0  0  0  0  0  0  0  0  0  0  0  0
  1  2  1  0  0  0  0
  1  8  1  0  0  0  0
  3  2  2  0  0  0  0
  4  3  1  0  0  0  0
  5  4  2  0  0  0  0
  5  6  1  0  0  0  0
  6  1  2  0  0  0  0
  8  7  1  0  0  0  0
  9  4  1  0  0  0  0
 10  9  2  0  0  0  0
 11 12  1  0  0  0  0
 11  9  1  0  0  0  0
 13 12  2  0  0  0  0
 14 13  1  0  0  0  0
 15 14  2  0  0  0  0
 15 16  1  0  0  0  0
 16 11  2  0  0  0  0
 17  5  1  0  0  0  0
 18 17  1  0  0  0  0
M  END
>  <MODEL>
3

>  <REMARK>
 VINA RESULT:      -4.8      2.468      3.810
  Name = bgox31_5_ligand
  5 active torsions:
  status: ('A' for Active; 'I' for Inactive)
    1  A    between atoms: C_1  and  O_2
    2  A    between atoms: O_2  and  C_3
    3  A    between atoms: C_6  and  C_7
    4  A    between atoms: C_7  and  C_9
    5  A    between atoms: C_15  and  O_16
                            x       y       z     vdW  Elec       q    Type
                         _______ _______ _______ _____ _____    ______ ____

>  <TORSDO>
F 4

$$$$
bgox31_5_ligand
 OpenBabel10092621253D

 18 19  0  0  0  0  0  0  0  0999 V2000
    5.6890    5.4190   -5.2370 C   0  0  0  0  0  0  0  0  0  0  0  0
    5.2760    5.1450   -3.9720 C   0  0  0  0  0  3  0  0  0  0  0  0
    5.9280    4.1310   -3.2370 C   0  0  0  0  0  3  0  0  0  0  0  0
    6.9680    3.3850   -3.7520 C   0  0  0  0  0  0  0  0  0  0  0  0
    7.3810    3.6580   -5.0540 C   0  0  0  0  0  0  0  0  0  0  0  0
    6.7350    4.6760   -5.8070 C   0  0  0  0  0  3  0  0  0  0  0  0
    5.2400    6.9330   -7.1970 C   0  0  0  0  0  1  0  0  0  0  0  0
    4.9190    6.4680   -5.8550 O   0  0  0  0  0  0  0  0  0  0  0  0
    7.5730    2.3500   -2.9500 C   0  0  0  0  0  0  0  0  0  0  0  0
    7.8170    1.2580   -3.4780 O   0  0  0  0  0  0  0  0  0  0  0  0
    7.7980    2.5620   -1.4860 C   0  0  0  0  0  0  0  0  0  0  0  0
    8.5480    3.5950   -0.9500 C   0  0  0  0  0  3  0  0  0  0  0  0
    8.7230    3.7340    0.4540 C   0  0  0  0  0  3  0  0  0  0  0  0
    8.1550    2.8690    1.3410 C   0  0  0  0  0  3  0  0  0  0  0  0
    7.3830    1.8430    0.8510 C   0  0  0  0  0  3  0  0  0  0  0  0
    7.2430    1.6930   -0.5490 C   0  0  0  0  0  3  0  0  0  0  0  0
    8.4080    2.9550   -5.5890 O   0  0  0  0  0  0  0  0  0  0  0  0
    8.7090    2.1130   -5.1620 H   0  0  0  0  0  0  0  0  0  0  0  0
  1  2  1  0  0  0  0
  2  3  2  0  0  0  0
  4  3  1  0  0  0  0
  4  9  1  0  0  0  0
  5  4  2  0  0  0  0
  6  1  2  0  0  0  0
  6  5  1  0  0  0  0
  7  8  1  0  0  0  0
  8  1  1  0  0  0  0
  9 11  1  0  0  0  0
 10  9  2  0  0  0  0
 11 12  2  0  0  0  0
 11 16  1  0  0  0  0
 12 13  1  0  0  0  0
 13 14  2  0  0  0  0
 15 14  1  0  0  0  0
 16 15  2  0  0  0  0
 17 18  1  0  0  0  0
 17  5  1  0  0  0  0
M  END
>  <MODEL>
4

>  <REMARK>
 VINA RESULT:      -4.7      3.695      7.152
  Name = bgox31_5_ligand
  5 active torsions:
  status: ('A' for Active; 'I' for Inactive)
    1  A    between atoms: C_1  and  O_2
    2  A    between atoms: O_2  and  C_3
    3  A    between atoms: C_6  and  C_7
    4  A    between atoms: C_7  and  C_9
    5  A    between atoms: C_15  and  O_16
                            x       y       z     vdW  Elec       q    Type
                         _______ _______ _______ _____ _____    ______ ____

>  <TORSDO>
F 4

$$$$
bgox31_5_ligand
 OpenBabel10092621253D

 18 19  0  0  0  0  0  0  0  0999 V2000
    7.5770    5.6540   -3.5200 C   0  0  0  0  0  0  0  0  0  0  0  0
    8.6100    5.4370   -2.6640 C   0  0  0  0  0  3  0  0  0  0  0  0
    8.8430    4.1330   -2.1780 C   0  0  0  0  0  3  0  0  0  0  0  0
    8.0540    3.0550   -2.5240 C   0  0  0  0  0  0  0  0  0  0  0  0
    6.9880    3.2810   -3.3910 C   0  0  0  0  0  0  0  0  0  0  0  0
    6.7410    4.5890   -3.8880 C   0  0  0  0  0  3  0  0  0  0  0  0
    8.1760    7.5320   -5.0850 C   0  0  0  0  0  1  0  0  0  0  0  0
    7.4670    7.0350   -3.9140 O   0  0  0  0  0  0  0  0  0  0  0  0
    8.3390    1.7520   -1.9720 C   0  0  0  0  0  0  0  0  0  0  0  0
    8.3520    0.7760   -2.7330 O   0  0  0  0  0  0  0  0  0  0  0  0
    8.5040    1.5750   -0.4950 C   0  0  0  0  0  0  0  0  0  0  0  0
    9.7210    1.3880    0.1380 C   0  0  0  0  0  3  0  0  0  0  0  0
    9.8050    1.2230    1.5480 C   0  0  0  0  0  3  0  0  0  0  0  0
    8.7000    1.2520    2.3450 C   0  0  0  0  0  3  0  0  0  0  0  0
    7.4750    1.4610    1.7580 C   0  0  0  0  0  3  0  0  0  0  0  0
    7.3980    1.5890    0.3510 C   0  0  0  0  0  3  0  0  0  0  0  0
    6.1990    2.2440   -3.7630 O   0  0  0  0  0  0  0  0  0  0  0  0
    5.2140    2.3190   -3.6870 H   0  0  0  0  0  0  0  0  0  0  0  0
  1  2  1  0  0  0  0
  2  3  2  0  0  0  0
  4  3  1  0  0  0  0
  4  9  1  0  0  0  0
  5  4  2  0  0  0  0
  6  1  2  0  0  0  0
  6  5  1  0  0  0  0
  7  8  1  0  0  0  0
  8  1  1  0  0  0  0
  9 11  1  0  0  0  0
 10  9  2  0  0  0  0
 11 12  2  0  0  0  0
 11 16  1  0  0  0  0
 12 13  1  0  0  0  0
 13 14  2  0  0  0  0
 15 14  1  0  0  0  0
 16 15  2  0  0  0  0
 17 18  1  0  0  0  0
 17  5  1  0  0  0  0
M  END
>  <MODEL>
5

>  <REMARK>
 VINA RESULT:      -4.6      3.236      5.882
  Name = bgox31_5_ligand
  5 active torsions:
  status: ('A' for Active; 'I' for Inactive)
    1  A    between atoms: C_1  and  O_2
    2  A    between atoms: O_2  and  C_3
    3  A    between atoms: C_6  and  C_7
    4  A    between atoms: C_7  and  C_9
    5  A    between atoms: C_15  and  O_16
                            x       y       z     vdW  Elec       q    Type
                         _______ _______ _______ _____ _____    ______ ____

>  <TORSDO>
F 4

$$$$
bgox31_5_ligand
 OpenBabel10092621253D

 18 19  0  0  0  0  0  0  0  0999 V2000
   10.3980    5.1530    2.1360 C   0  0  0  0  0  0  0  0  0  0  0  0
    9.2250    5.5630    1.5880 C   0  0  0  0  0  3  0  0  0  0  0  0
    8.3170    4.6010    1.0970 C   0  0  0  0  0  3  0  0  0  0  0  0
    8.5720    3.2450    1.1350 C   0  0  0  0  0  0  0  0  0  0  0  0
    9.7810    2.8260    1.6850 C   0  0  0  0  0  0  0  0  0  0  0  0
   10.7060    3.7840    2.1840 C   0  0  0  0  0  3  0  0  0  0  0  0
   10.6070    7.4940    3.0360 C   0  0  0  0  0  1  0  0  0  0  0  0
   11.2160    6.2520    2.5790 O   0  0  0  0  0  0  0  0  0  0  0  0
    7.6070    2.3190    0.5950 C   0  0  0  0  0  0  0  0  0  0  0  0
    7.1670    1.4250    1.3300 O   0  0  0  0  0  0  0  0  0  0  0  0
    7.2310    2.3740   -0.8530 C   0  0  0  0  0  0  0  0  0  0  0  0
    6.0450    2.9020   -1.3330 C   0  0  0  0  0  3  0  0  0  0  0  0
    5.7510    2.9190   -2.7240 C   0  0  0  0  0  3  0  0  0  0  0  0
    6.6220    2.4310   -3.6520 C   0  0  0  0  0  3  0  0  0  0  0  0
    7.8220    1.9220   -3.2180 C   0  0  0  0  0  3  0  0  0  0  0  0
    8.0910    1.8770   -1.8300 C   0  0  0  0  0  3  0  0  0  0  0  0
   10.0610    1.5020    1.7510 O   0  0  0  0  0  0  0  0  0  0  0  0
    9.3430    0.8530    1.9610 H   0  0  0  0  0  0  0  0  0  0  0  0
  1  6  1  0  0  0  0
  1  8  1  0  0  0  0
  2  1  2  0  0  0  0
  3  4  2  0  0  0  0
  3  2  1  0  0  0  0
  4  5  1  0  0  0  0
  5 17  1  0  0  0  0
  5  6  2  0  0  0  0
  8  7  1  0  0  0  0
  9  4  1  0  0  0  0
  9 10  2  0  0  0  0
 11  9  1  0  0  0  0
 12 11  1  0  0  0  0
 13 12  2  0  0  0  0
 14 15  2  0  0  0  0
 14 13  1  0  0  0  0
 15 16  1  0  0  0  0
 16 11  2  0  0  0  0
 17 18  1  0  0  0  0
M  END
>  <MODEL>
6

>  <REMARK>
 VINA RESULT:      -4.6      1.291      1.849
  Name = bgox31_5_ligand
  5 active torsions:
  status: ('A' for Active; 'I' for Inactive)
    1  A    between atoms: C_1  and  O_2
    2  A    between atoms: O_2  and  C_3
    3  A    between atoms: C_6  and  C_7
    4  A    between atoms: C_7  and  C_9
    5  A    between atoms: C_15  and  O_16
                            x       y       z     vdW  Elec       q    Type
                         _______ _______ _______ _____ _____    ______ ____

>  <TORSDO>
F 4

$$$$
bgox31_5_ligand
 OpenBabel10092621253D

 18 19  0  0  0  0  0  0  0  0999 V2000
    7.6830    2.8480   -3.9990 C   0  0  0  0  0  0  0  0  0  0  0  0
    8.6900    2.0850   -3.4960 C   0  0  0  0  0  3  0  0  0  0  0  0
    8.6610    1.7120   -2.1350 C   0  0  0  0  0  3  0  0  0  0  0  0
    7.6530    2.1000   -1.2750 C   0  0  0  0  0  0  0  0  0  0  0  0
    6.6300    2.8920   -1.7890 C   0  0  0  0  0  0  0  0  0  0  0  0
    6.6450    3.2760   -3.1570 C   0  0  0  0  0  3  0  0  0  0  0  0
    7.3680    4.4000   -5.9540 C   0  0  0  0  0  1  0  0  0  0  0  0
    7.8640    3.1500   -5.3950 O   0  0  0  0  0  0  0  0  0  0  0  0
    7.6990    1.6990    0.1090 C   0  0  0  0  0  0  0  0  0  0  0  0
    6.7650    1.0250    0.5630 O   0  0  0  0  0  0  0  0  0  0  0  0
    8.8000    2.1810    1.0020 C   0  0  0  0  0  0  0  0  0  0  0  0
    9.2740    3.4820    1.0260 C   0  0  0  0  0  3  0  0  0  0  0  0
   10.3270    3.8710    1.8980 C   0  0  0  0  0  3  0  0  0  0  0  0
   10.9110    2.9930    2.7600 C   0  0  0  0  0  3  0  0  0  0  0  0
   10.4530    1.6980    2.7860 C   0  0  0  0  0  3  0  0  0  0  0  0
    9.4290    1.3110    1.8890 C   0  0  0  0  0  3  0  0  0  0  0  0
    5.6170    3.2820   -0.9770 O   0  0  0  0  0  0  0  0  0  0  0  0
    5.2210    2.6400   -0.3350 H   0  0  0  0  0  0  0  0  0  0  0  0
  1  2  2  0  0  0  0
  1  6  1  0  0  0  0
  2  3  1  0  0  0  0
  3  4  2  0  0  0  0
  4  9  1  0  0  0  0
  5  4  1  0  0  0  0
  5 17  1  0  0  0  0
  6  5  2  0  0  0  0
  7  8  1  0  0  0  0
  8  1  1  0  0  0  0
  9 10  2  0  0  0  0
  9 11  1  0  0  0  0
 11 12  2  0  0  0  0
 11 16  1  0  0  0  0
 12 13  1  0  0  0  0
 13 14  2  0  0  0  0
 14 15  1  0  0  0  0
 16 15  2  0  0  0  0
 17 18  1  0  0  0  0
M  END
>  <MODEL>
7

>  <REMARK>
 VINA RESULT:      -4.6      2.112      6.105
  Name = bgox31_5_ligand
  5 active torsions:
  status: ('A' for Active; 'I' for Inactive)
    1  A    between atoms: C_1  and  O_2
    2  A    between atoms: O_2  and  C_3
    3  A    between atoms: C_6  and  C_7
    4  A    between atoms: C_7  and  C_9
    5  A    between atoms: C_15  and  O_16
                            x       y       z     vdW  Elec       q    Type
                         _______ _______ _______ _____ _____    ______ ____

>  <TORSDO>
F 4

$$$$
bgox31_5_ligand
 OpenBabel10092621253D

 18 19  0  0  0  0  0  0  0  0999 V2000
    6.6380    4.8760   -3.7070 C   0  0  0  0  0  0  0  0  0  0  0  0
    5.8830    3.8900   -3.1550 C   0  0  0  0  0  3  0  0  0  0  0  0
    6.5210    2.8120   -2.5060 C   0  0  0  0  0  3  0  0  0  0  0  0
    7.8940    2.7000   -2.4160 C   0  0  0  0  0  0  0  0  0  0  0  0
    8.6670    3.7040   -2.9940 C   0  0  0  0  0  0  0  0  0  0  0  0
    8.0390    4.7970   -3.6510 C   0  0  0  0  0  3  0  0  0  0  0  0
    5.5000    5.8030   -5.7510 C   0  0  0  0  0  1  0  0  0  0  0  0
    5.8410    5.8950   -4.3380 O   0  0  0  0  0  0  0  0  0  0  0  0
    8.4780    1.5580   -1.7550 C   0  0  0  0  0  0  0  0  0  0  0  0
    8.8840    0.6160   -2.4470 O   0  0  0  0  0  0  0  0  0  0  0  0
    8.4900    1.4730   -0.2610 C   0  0  0  0  0  0  0  0  0  0  0  0
    7.3570    1.3500    0.5250 C   0  0  0  0  0  3  0  0  0  0  0  0
    7.4420    1.2770    1.9420 C   0  0  0  0  0  3  0  0  0  0  0  0
    8.6370    1.3110    2.5960 C   0  0  0  0  0  3  0  0  0  0  0  0
    9.7870    1.4070    1.8510 C   0  0  0  0  0  3  0  0  0  0  0  0
    9.6910    1.5150    0.4440 C   0  0  0  0  0  3  0  0  0  0  0  0
   10.0180    3.6350   -2.9140 O   0  0  0  0  0  0  0  0  0  0  0  0
   10.5720    3.8350   -3.7100 H   0  0  0  0  0  0  0  0  0  0  0  0
  1  6  2  0  0  0  0
  1  2  1  0  0  0  0
  2  3  2  0  0  0  0
  3  4  1  0  0  0  0
  4  9  1  0  0  0  0
  5 17  1  0  0  0  0
  5  4  2  0  0  0  0
  6  5  1  0  0  0  0
  7  8  1  0  0  0  0
  8  1  1  0  0  0  0
  9 11  1  0  0  0  0
 10  9  2  0  0  0  0
 11 16  2  0  0  0  0
 11 12  1  0  0  0  0
 12 13  2  0  0  0  0
 13 14  1  0  0  0  0
 15 14  2  0  0  0  0
 16 15  1  0  0  0  0
 18 17  1  0  0  0  0
M  END
>  <MODEL>
8

>  <REMARK>
 VINA RESULT:      -4.6      2.965      6.285
  Name = bgox31_5_ligand
  5 active torsions:
  status: ('A' for Active; 'I' for Inactive)
    1  A    between atoms: C_1  and  O_2
    2  A    between atoms: O_2  and  C_3
    3  A    between atoms: C_6  and  C_7
    4  A    between atoms: C_7  and  C_9
    5  A    between atoms: C_15  and  O_16
                            x       y       z     vdW  Elec       q    Type
                         _______ _______ _______ _____ _____    ______ ____

>  <TORSDO>
F 4

$$$$
bgox31_5_ligand
 OpenBabel10092621253D

 18 19  0  0  0  0  0  0  0  0999 V2000
   11.5370    0.8680    1.5590 C   0  0  0  0  0  0  0  0  0  0  0  0
   11.7160    1.9900    0.8140 C   0  0  0  0  0  3  0  0  0  0  0  0
   10.6040    2.8020    0.5070 C   0  0  0  0  0  3  0  0  0  0  0  0
    9.3220    2.5000    0.9210 C   0  0  0  0  0  0  0  0  0  0  0  0
    9.1370    1.3430    1.6730 C   0  0  0  0  0  0  0  0  0  0  0  0
   10.2480    0.5150    1.9900 C   0  0  0  0  0  3  0  0  0  0  0  0
   13.0080   -1.1220    1.1000 C   0  0  0  0  0  1  0  0  0  0  0  0
   12.7630    0.1460    1.7750 O   0  0  0  0  0  0  0  0  0  0  0  0
    8.2280    3.3650    0.5520 C   0  0  0  0  0  0  0  0  0  0  0  0
    7.6890    4.0480    1.4330 O   0  0  0  0  0  0  0  0  0  0  0  0
    7.6890    3.3520   -0.8440 C   0  0  0  0  0  0  0  0  0  0  0  0
    8.3390    3.8940   -1.9390 C   0  0  0  0  0  3  0  0  0  0  0  0
    7.7650    3.8490   -3.2390 C   0  0  0  0  0  3  0  0  0  0  0  0
    6.5590    3.2610   -3.4750 C   0  0  0  0  0  3  0  0  0  0  0  0
    5.8920    2.6890   -2.4190 C   0  0  0  0  0  3  0  0  0  0  0  0
    6.4540    2.7700   -1.1230 C   0  0  0  0  0  3  0  0  0  0  0  0
    7.8940    1.0210    2.1070 O   0  0  0  0  0  0  0  0  0  0  0  0
    7.6500    1.1590    3.0570 H   0  0  0  0  0  0  0  0  0  0  0  0
  1  8  1  0  0  0  0
  1  6  1  0  0  0  0
  2  1  2  0  0  0  0
  3  2  1  0  0  0  0
  3  4  2  0  0  0  0
  4  5  1  0  0  0  0
  5  6  2  0  0  0  0
  5 17  1  0  0  0  0
  7  8  1  0  0  0  0
  9  4  1  0  0  0  0
  9 10  2  0  0  0  0
 11  9  1  0  0  0  0
 12 11  2  0  0  0  0
 13 12  1  0  0  0  0
 14 13  2  0  0  0  0
 14 15  1  0  0  0  0
 15 16  2  0  0  0  0
 16 11  1  0  0  0  0
 17 18  1  0  0  0  0
M  END
>  <MODEL>
9

>  <REMARK>
 VINA RESULT:      -4.4      2.039      2.587
  Name = bgox31_5_ligand
  5 active torsions:
  status: ('A' for Active; 'I' for Inactive)
    1  A    between atoms: C_1  and  O_2
    2  A    between atoms: O_2  and  C_3
    3  A    between atoms: C_6  and  C_7
    4  A    between atoms: C_7  and  C_9
    5  A    between atoms: C_15  and  O_16
                            x       y       z     vdW  Elec       q    Type
                         _______ _______ _______ _____ _____    ______ ____

>  <TORSDO>
F 4

$$$$
