bgox31_4_dockpose1
     RDKit          3D

 17 18  0  0  0  0  0  0  0  0999 V2000
   -0.8830   -4.0750    0.5580 C   0  0  0  0  0  0  0  0  0  0  0  0
   -1.8260   -2.9840    0.7310 O   0  0  0  0  0  0  0  0  0  0  0  0
   -2.9470   -3.0450   -0.0590 C   0  0  0  0  0  0  0  0  0  0  0  0
   -2.8800   -2.5500   -1.3330 C   0  0  0  0  0  0  0  0  0  0  0  0
   -4.0370   -2.5580   -2.1940 C   0  0  0  0  0  0  0  0  0  0  0  0
   -5.2030   -3.1470   -1.6840 C   0  0  0  0  0  0  0  0  0  0  0  0
   -6.3670   -3.1810   -2.5860 C   0  0  0  0  0  0  0  0  0  0  0  0
   -6.7030   -4.3260   -3.0370 O   0  0  0  0  0  0  0  0  0  0  0  0
   -7.2880   -2.0610   -2.7950 C   0  0  0  0  0  0  0  0  0  0  0  0
   -7.1310   -1.3270   -3.9790 C   0  0  0  0  0  0  0  0  0  0  0  0
   -7.9340   -0.1830   -4.1850 C   0  0  0  0  0  0  0  0  0  0  0  0
   -8.7680    0.2410   -3.2000 C   0  0  0  0  0  0  0  0  0  0  0  0
   -8.8930   -0.4320   -1.9970 C   0  0  0  0  0  0  0  0  0  0  0  0
   -8.1240   -1.5900   -1.7630 C   0  0  0  0  0  0  0  0  0  0  0  0
   -5.2490   -3.6230   -0.3800 C   0  0  0  0  0  0  0  0  0  0  0  0
   -6.4580   -4.1780    0.0740 O   0  0  0  0  0  0  0  0  0  0  0  0
   -4.1210   -3.5940    0.4610 C   0  0  0  0  0  0  0  0  0  0  0  0
  2  1  1  0
  3  2  1  0
  4  3  1  0
  5  4  2  0
  6  5  1  0
  7  6  1  0
  8  7  2  0
  9  7  1  0
 10  9  2  0
 11 10  1  0
 12 11  2  0
 13 12  1  0
 14 13  2  0
 14  9  1  0
 15  6  2  0
 16 15  1  0
 17 15  1  0
 17  3  2  0
M  END
$$$$
