ox2_shuffle_ligand
 OpenBabel10092621213D

 18 19  0  0  0  0  0  0  0  0999 V2000
    1.5970    6.1540    7.2770 C   0  0  0  0  0  0  0  0  0  0  0  0
    2.6400    7.0600    7.1730 C   0  0  0  0  0  3  0  0  0  0  0  0
    2.5740    8.1070    6.2790 C   0  0  0  0  0  3  0  0  0  0  0  0
    1.4590    8.2610    5.4640 C   0  0  0  0  0  0  0  0  0  0  0  0
    0.4050    7.3420    5.5570 C   0  0  0  0  0  0  0  0  0  0  0  0
    0.4840    6.2960    6.4690 C   0  0  0  0  0  3  0  0  0  0  0  0
    0.9320    3.9880    8.0870 C   0  0  0  0  0  1  0  0  0  0  0  0
    1.7280    5.1410    8.1920 O   0  0  0  0  0  0  0  0  0  0  0  0
    1.3820    9.4020    4.4840 C   0  0  0  0  0  0  0  0  0  0  0  0
    0.6690   10.3500    4.7250 O   0  0  0  0  0  0  0  0  0  0  0  0
    2.1580    9.3580    3.2260 C   0  0  0  0  0  0  0  0  0  0  0  0
    3.5480    9.3610    3.2520 C   0  0  0  0  0  3  0  0  0  0  0  0
    4.2590    9.3330    2.0610 C   0  0  0  0  0  3  0  0  0  0  0  0
    3.5820    9.2920    0.8440 C   0  0  0  0  0  3  0  0  0  0  0  0
    2.1930    9.3040    0.8180 C   0  0  0  0  0  3  0  0  0  0  0  0
    1.4720    9.3500    2.0140 C   0  0  0  0  0  3  0  0  0  0  0  0
   -0.6900    7.4840    4.7600 O   0  0  0  0  0  0  0  0  0  0  0  0
   -0.6740    7.1430    3.8310 H   0  0  0  0  0  0  0  0  0  0  0  0
  1  8  1  0  0  0  0
  2  1  1  0  0  0  0
  3  2  2  0  0  0  0
  4  5  2  0  0  0  0
  4  3  1  0  0  0  0
  5  6  1  0  0  0  0
  6  1  2  0  0  0  0
  7  8  1  0  0  0  0
  9 10  2  0  0  0  0
  9  4  1  0  0  0  0
 11 12  1  0  0  0  0
 11  9  1  0  0  0  0
 13 12  2  0  0  0  0
 14 13  1  0  0  0  0
 15 14  2  0  0  0  0
 15 16  1  0  0  0  0
 16 11  2  0  0  0  0
 17  5  1  0  0  0  0
 18 17  1  0  0  0  0
M  END
>  <MODEL>
1

>  <REMARK>
 VINA RESULT:      -4.6      0.000      0.000
  Name = ox2_shuffle_ligand
  5 active torsions:
  status: ('A' for Active; 'I' for Inactive)
    1  A    between atoms: C_1  and  O_2
    2  A    between atoms: O_2  and  C_3
    3  A    between atoms: C_6  and  C_7
    4  A    between atoms: C_7  and  C_9
    5  A    between atoms: C_15  and  O_16
                            x       y       z     vdW  Elec       q    Type
                         _______ _______ _______ _____ _____    ______ ____

>  <TORSDO>
F 4

$$$$
ox2_shuffle_ligand
 OpenBabel10092621213D

 18 19  0  0  0  0  0  0  0  0999 V2000
    7.1550    4.9780   -8.0420 C   0  0  0  0  0  0  0  0  0  0  0  0
    7.4170    3.7000   -8.5110 C   0  0  0  0  0  3  0  0  0  0  0  0
    7.5080    2.6380   -7.6370 C   0  0  0  0  0  3  0  0  0  0  0  0
    7.3460    2.8390   -6.2720 C   0  0  0  0  0  0  0  0  0  0  0  0
    7.0900    4.1310   -5.7910 C   0  0  0  0  0  0  0  0  0  0  0  0
    6.9940    5.1900   -6.6860 C   0  0  0  0  0  3  0  0  0  0  0  0
    7.3740    5.7320  -10.3160 C   0  0  0  0  0  1  0  0  0  0  0  0
    7.0710    5.9860   -8.9690 O   0  0  0  0  0  0  0  0  0  0  0  0
    7.4470    1.6820   -5.3130 C   0  0  0  0  0  0  0  0  0  0  0  0
    6.4680    1.3320   -4.6930 O   0  0  0  0  0  0  0  0  0  0  0  0
    8.7380    0.9890   -5.1140 C   0  0  0  0  0  0  0  0  0  0  0  0
    9.0360   -0.1680   -5.8230 C   0  0  0  0  0  3  0  0  0  0  0  0
   10.2470   -0.8120   -5.6130 C   0  0  0  0  0  3  0  0  0  0  0  0
   11.1650   -0.2950   -4.7020 C   0  0  0  0  0  3  0  0  0  0  0  0
   10.8600    0.8540   -3.9820 C   0  0  0  0  0  3  0  0  0  0  0  0
    9.6350    1.4960   -4.1770 C   0  0  0  0  0  3  0  0  0  0  0  0
    6.9330    4.3370   -4.4540 O   0  0  0  0  0  0  0  0  0  0  0  0
    6.0890    4.7200   -4.1070 H   0  0  0  0  0  0  0  0  0  0  0  0
  1  6  1  0  0  0  0
  2  1  2  0  0  0  0
  2  3  1  0  0  0  0
  3  4  2  0  0  0  0
  4  5  1  0  0  0  0
  4  9  1  0  0  0  0
  5 17  1  0  0  0  0
  6  5  2  0  0  0  0
  7  8  1  0  0  0  0
  8  1  1  0  0  0  0
  9 11  1  0  0  0  0
  9 10  2  0  0  0  0
 11 16  1  0  0  0  0
 12 13  1  0  0  0  0
 12 11  2  0  0  0  0
 13 14  2  0  0  0  0
 14 15  1  0  0  0  0
 16 15  2  0  0  0  0
 17 18  1  0  0  0  0
M  END
>  <MODEL>
2

>  <REMARK>
 VINA RESULT:      -4.3     12.563     14.859
  Name = ox2_shuffle_ligand
  5 active torsions:
  status: ('A' for Active; 'I' for Inactive)
    1  A    between atoms: C_1  and  O_2
    2  A    between atoms: O_2  and  C_3
    3  A    between atoms: C_6  and  C_7
    4  A    between atoms: C_7  and  C_9
    5  A    between atoms: C_15  and  O_16
                            x       y       z     vdW  Elec       q    Type
                         _______ _______ _______ _____ _____    ______ ____

>  <TORSDO>
F 4

$$$$
ox2_shuffle_ligand
 OpenBabel10092621213D

 18 19  0  0  0  0  0  0  0  0999 V2000
    9.0500    4.9040   -2.1770 C   0  0  0  0  0  0  0  0  0  0  0  0
    9.6380    3.6500   -2.1310 C   0  0  0  0  0  3  0  0  0  0  0  0
    9.2150    2.6470   -2.9760 C   0  0  0  0  0  3  0  0  0  0  0  0
    8.1870    2.8800   -3.8810 C   0  0  0  0  0  0  0  0  0  0  0  0
    7.5830    4.1450   -3.9260 C   0  0  0  0  0  0  0  0  0  0  0  0
    8.0250    5.1470   -3.0710 C   0  0  0  0  0  3  0  0  0  0  0  0
    8.6850    6.3890   -0.3190 C   0  0  0  0  0  1  0  0  0  0  0  0
    9.5250    5.8570   -1.3110 O   0  0  0  0  0  0  0  0  0  0  0  0
    7.7210    1.7870   -4.8060 C   0  0  0  0  0  0  0  0  0  0  0  0
    6.5660    1.4250   -4.7700 O   0  0  0  0  0  0  0  0  0  0  0  0
    8.6710    1.1440   -5.7380 C   0  0  0  0  0  0  0  0  0  0  0  0
    9.2290   -0.0940   -5.4380 C   0  0  0  0  0  3  0  0  0  0  0  0
   10.1290   -0.6750   -6.3180 C   0  0  0  0  0  3  0  0  0  0  0  0
   10.4650   -0.0270   -7.5050 C   0  0  0  0  0  3  0  0  0  0  0  0
    9.9180    1.2170   -7.7980 C   0  0  0  0  0  3  0  0  0  0  0  0
    9.0250    1.8150   -6.9060 C   0  0  0  0  0  3  0  0  0  0  0  0
    6.5720    4.3810   -4.8080 O   0  0  0  0  0  0  0  0  0  0  0  0
    6.7140    4.9940   -5.5720 H   0  0  0  0  0  0  0  0  0  0  0  0
  1  2  1  0  0  0  0
  1  8  1  0  0  0  0
  3  2  2  0  0  0  0
  4  3  1  0  0  0  0
  5  4  2  0  0  0  0
  5  6  1  0  0  0  0
  6  1  2  0  0  0  0
  8  7  1  0  0  0  0
  9 10  2  0  0  0  0
  9  4  1  0  0  0  0
 11 12  1  0  0  0  0
 11  9  1  0  0  0  0
 13 12  2  0  0  0  0
 14 13  1  0  0  0  0
 15 14  2  0  0  0  0
 15 16  1  0  0  0  0
 16 11  2  0  0  0  0
 17  5  1  0  0  0  0
 18 17  1  0  0  0  0
M  END
>  <MODEL>
3

>  <REMARK>
 VINA RESULT:      -4.3     10.994     13.141
  Name = ox2_shuffle_ligand
  5 active torsions:
  status: ('A' for Active; 'I' for Inactive)
    1  A    between atoms: C_1  and  O_2
    2  A    between atoms: O_2  and  C_3
    3  A    between atoms: C_6  and  C_7
    4  A    between atoms: C_7  and  C_9
    5  A    between atoms: C_15  and  O_16
                            x       y       z     vdW  Elec       q    Type
                         _______ _______ _______ _____ _____    ______ ____

>  <TORSDO>
F 4

$$$$
ox2_shuffle_ligand
 OpenBabel10092621213D

 18 19  0  0  0  0  0  0  0  0999 V2000
   -0.6140    6.2510   -2.6960 C   0  0  0  0  0  0  0  0  0  0  0  0
   -0.8950    6.1020   -1.3470 C   0  0  0  0  0  3  0  0  0  0  0  0
   -0.6680    7.1370   -0.4660 C   0  0  0  0  0  3  0  0  0  0  0  0
   -0.1450    8.3420   -0.9210 C   0  0  0  0  0  0  0  0  0  0  0  0
    0.1490    8.4940   -2.2830 C   0  0  0  0  0  0  0  0  0  0  0  0
   -0.0920    7.4430   -3.1600 C   0  0  0  0  0  3  0  0  0  0  0  0
    0.0510    4.8190   -4.5120 C   0  0  0  0  0  1  0  0  0  0  0  0
   -0.8710    5.1810   -3.5170 O   0  0  0  0  0  0  0  0  0  0  0  0
    0.1060    9.4750    0.0390 C   0  0  0  0  0  0  0  0  0  0  0  0
   -0.6140   10.4480    0.0170 O   0  0  0  0  0  0  0  0  0  0  0  0
    1.2370    9.4100    0.9890 C   0  0  0  0  0  0  0  0  0  0  0  0
    1.0100    9.4130    2.3600 C   0  0  0  0  0  3  0  0  0  0  0  0
    2.0840    9.3650    3.2360 C   0  0  0  0  0  3  0  0  0  0  0  0
    3.3850    9.3040    2.7440 C   0  0  0  0  0  3  0  0  0  0  0  0
    3.6130    9.3160    1.3730 C   0  0  0  0  0  3  0  0  0  0  0  0
    2.5350    9.3820    0.4870 C   0  0  0  0  0  3  0  0  0  0  0  0
    0.6650    9.6710   -2.7370 O   0  0  0  0  0  0  0  0  0  0  0  0
    1.1070   10.2940   -2.1080 H   0  0  0  0  0  0  0  0  0  0  0  0
  1  2  1  0  0  0  0
  2  3  2  0  0  0  0
  4  3  1  0  0  0  0
  4  9  1  0  0  0  0
  5  4  2  0  0  0  0
  6  1  2  0  0  0  0
  6  5  1  0  0  0  0
  7  8  1  0  0  0  0
  8  1  1  0  0  0  0
  9 11  1  0  0  0  0
 10  9  2  0  0  0  0
 11 12  1  0  0  0  0
 12 13  2  0  0  0  0
 14 13  1  0  0  0  0
 15 14  2  0  0  0  0
 16 11  2  0  0  0  0
 16 15  1  0  0  0  0
 17  5  1  0  0  0  0
 17 18  1  0  0  0  0
M  END
>  <MODEL>
4

>  <REMARK>
 VINA RESULT:      -4.3      4.412      7.230
  Name = ox2_shuffle_ligand
  5 active torsions:
  status: ('A' for Active; 'I' for Inactive)
    1  A    between atoms: C_1  and  O_2
    2  A    between atoms: O_2  and  C_3
    3  A    between atoms: C_6  and  C_7
    4  A    between atoms: C_7  and  C_9
    5  A    between atoms: C_15  and  O_16
                            x       y       z     vdW  Elec       q    Type
                         _______ _______ _______ _____ _____    ______ ____

>  <TORSDO>
F 4

$$$$
ox2_shuffle_ligand
 OpenBabel10092621213D

 18 19  0  0  0  0  0  0  0  0999 V2000
    8.9830    4.7430   -2.1360 C   0  0  0  0  0  0  0  0  0  0  0  0
    7.8920    5.1360   -2.8950 C   0  0  0  0  0  3  0  0  0  0  0  0
    7.3450    4.2830   -3.8300 C   0  0  0  0  0  3  0  0  0  0  0  0
    7.8880    3.0200   -4.0270 C   0  0  0  0  0  0  0  0  0  0  0  0
    8.9980    2.6210   -3.2680 C   0  0  0  0  0  0  0  0  0  0  0  0
    9.5330    3.4900   -2.3250 C   0  0  0  0  0  3  0  0  0  0  0  0
    8.6090    6.2270   -0.2790 C   0  0  0  0  0  1  0  0  0  0  0  0
    9.4710    5.6410   -1.2200 O   0  0  0  0  0  0  0  0  0  0  0  0
    7.2960    2.0850   -5.0480 C   0  0  0  0  0  0  0  0  0  0  0  0
    6.4630    1.2750   -4.7060 O   0  0  0  0  0  0  0  0  0  0  0  0
    7.7410    2.1410   -6.4570 C   0  0  0  0  0  0  0  0  0  0  0  0
    8.8640    1.4350   -6.8730 C   0  0  0  0  0  3  0  0  0  0  0  0
    9.2730    1.5110   -8.1960 C   0  0  0  0  0  3  0  0  0  0  0  0
    8.5570    2.2840   -9.1070 C   0  0  0  0  0  3  0  0  0  0  0  0
    7.4430    3.0010   -8.6880 C   0  0  0  0  0  3  0  0  0  0  0  0
    7.0360    2.9420   -7.3520 C   0  0  0  0  0  3  0  0  0  0  0  0
    9.5380    1.3850   -3.4570 O   0  0  0  0  0  0  0  0  0  0  0  0
    9.0450    0.7020   -3.9770 H   0  0  0  0  0  0  0  0  0  0  0  0
  1  8  1  0  0  0  0
  2  1  2  0  0  0  0
  3  2  1  0  0  0  0
  4  3  2  0  0  0  0
  4  5  1  0  0  0  0
  5  6  2  0  0  0  0
  6  1  1  0  0  0  0
  8  7  1  0  0  0  0
  9 10  2  0  0  0  0
  9  4  1  0  0  0  0
 11  9  1  0  0  0  0
 12 11  1  0  0  0  0
 13 12  2  0  0  0  0
 14 15  2  0  0  0  0
 14 13  1  0  0  0  0
 15 16  1  0  0  0  0
 16 11  2  0  0  0  0
 17  5  1  0  0  0  0
 18 17  1  0  0  0  0
M  END
>  <MODEL>
5

>  <REMARK>
 VINA RESULT:      -4.3     10.744     12.939
  Name = ox2_shuffle_ligand
  5 active torsions:
  status: ('A' for Active; 'I' for Inactive)
    1  A    between atoms: C_1  and  O_2
    2  A    between atoms: O_2  and  C_3
    3  A    between atoms: C_6  and  C_7
    4  A    between atoms: C_7  and  C_9
    5  A    between atoms: C_15  and  O_16
                            x       y       z     vdW  Elec       q    Type
                         _______ _______ _______ _____ _____    ______ ____

>  <TORSDO>
F 4

$$$$
ox2_shuffle_ligand
 OpenBabel10092621213D

 18 19  0  0  0  0  0  0  0  0999 V2000
   11.0980   -0.4940   -4.8710 C   0  0  0  0  0  0  0  0  0  0  0  0
   10.1960   -0.7670   -5.8870 C   0  0  0  0  0  3  0  0  0  0  0  0
    9.0030   -0.0810   -5.9680 C   0  0  0  0  0  3  0  0  0  0  0  0
    8.6880    0.8900   -5.0250 C   0  0  0  0  0  0  0  0  0  0  0  0
    9.5930    1.1630   -3.9900 C   0  0  0  0  0  0  0  0  0  0  0  0
   10.7940    0.4670   -3.9260 C   0  0  0  0  0  3  0  0  0  0  0  0
   12.3000   -2.5190   -5.3630 C   0  0  0  0  0  1  0  0  0  0  0  0
   12.2680   -1.2110   -4.8550 O   0  0  0  0  0  0  0  0  0  0  0  0
    7.3860    1.6410   -5.1090 C   0  0  0  0  0  0  0  0  0  0  0  0
    6.3980    1.1870   -4.5760 O   0  0  0  0  0  0  0  0  0  0  0  0
    7.3060    2.9140   -5.8550 C   0  0  0  0  0  0  0  0  0  0  0  0
    7.4000    4.1310   -5.1890 C   0  0  0  0  0  3  0  0  0  0  0  0
    7.3110    5.3160   -5.9040 C   0  0  0  0  0  3  0  0  0  0  0  0
    7.1370    5.2880   -7.2860 C   0  0  0  0  0  3  0  0  0  0  0  0
    7.0280    4.0710   -7.9500 C   0  0  0  0  0  3  0  0  0  0  0  0
    7.1010    2.8750   -7.2320 C   0  0  0  0  0  3  0  0  0  0  0  0
    9.2900    2.1110   -3.0590 O   0  0  0  0  0  0  0  0  0  0  0  0
    9.0240    1.8410   -2.1450 H   0  0  0  0  0  0  0  0  0  0  0  0
  1  8  1  0  0  0  0
  1  6  1  0  0  0  0
  2  1  2  0  0  0  0
  3  2  1  0  0  0  0
  3  4  2  0  0  0  0
  4  5  1  0  0  0  0
  5  6  2  0  0  0  0
  5 17  1  0  0  0  0
  7  8  1  0  0  0  0
  9  4  1  0  0  0  0
  9 10  2  0  0  0  0
 11 12  1  0  0  0  0
 11  9  1  0  0  0  0
 13 12  2  0  0  0  0
 14 13  1  0  0  0  0
 15 14  2  0  0  0  0
 15 16  1  0  0  0  0
 16 11  2  0  0  0  0
 17 18  1  0  0  0  0
M  END
>  <MODEL>
6

>  <REMARK>
 VINA RESULT:      -4.3     12.436     14.344
  Name = ox2_shuffle_ligand
  5 active torsions:
  status: ('A' for Active; 'I' for Inactive)
    1  A    between atoms: C_1  and  O_2
    2  A    between atoms: O_2  and  C_3
    3  A    between atoms: C_6  and  C_7
    4  A    between atoms: C_7  and  C_9
    5  A    between atoms: C_15  and  O_16
                            x       y       z     vdW  Elec       q    Type
                         _______ _______ _______ _____ _____    ______ ____

>  <TORSDO>
F 4

$$$$
ox2_shuffle_ligand
 OpenBabel10092621213D

 18 19  0  0  0  0  0  0  0  0999 V2000
   10.2660    0.4070   -7.8830 C   0  0  0  0  0  0  0  0  0  0  0  0
    9.3800    1.4310   -8.1770 C   0  0  0  0  0  3  0  0  0  0  0  0
    8.5110    1.9040   -7.2170 C   0  0  0  0  0  3  0  0  0  0  0  0
    8.5090    1.3510   -5.9420 C   0  0  0  0  0  0  0  0  0  0  0  0
    9.3970    0.3080   -5.6420 C   0  0  0  0  0  0  0  0  0  0  0  0
   10.2710   -0.1520   -6.6200 C   0  0  0  0  0  3  0  0  0  0  0  0
   11.1890    0.7210  -10.0830 C   0  0  0  0  0  1  0  0  0  0  0  0
   11.1050   -0.0090   -8.8860 O   0  0  0  0  0  0  0  0  0  0  0  0
    7.5610    1.8620   -4.8900 C   0  0  0  0  0  0  0  0  0  0  0  0
    6.5220    1.2750   -4.6840 O   0  0  0  0  0  0  0  0  0  0  0  0
    7.8860    3.0850   -4.1250 C   0  0  0  0  0  0  0  0  0  0  0  0
    8.8300    3.0520   -3.1060 C   0  0  0  0  0  3  0  0  0  0  0  0
    9.1120    4.2060   -2.3900 C   0  0  0  0  0  3  0  0  0  0  0  0
    8.4580    5.3970   -2.6990 C   0  0  0  0  0  3  0  0  0  0  0  0
    7.5030    5.4270   -3.7080 C   0  0  0  0  0  3  0  0  0  0  0  0
    7.2030    4.2630   -4.4200 C   0  0  0  0  0  3  0  0  0  0  0  0
    9.4000   -0.2420   -4.3960 O   0  0  0  0  0  0  0  0  0  0  0  0
   10.2270   -0.2360   -3.8530 H   0  0  0  0  0  0  0  0  0  0  0  0
  1  6  1  0  0  0  0
  2  1  2  0  0  0  0
  2  3  1  0  0  0  0
  3  4  2  0  0  0  0
  4  5  1  0  0  0  0
  4  9  1  0  0  0  0
  5 17  1  0  0  0  0
  6  5  2  0  0  0  0
  7  8  1  0  0  0  0
  8  1  1  0  0  0  0
  9 10  2  0  0  0  0
  9 11  1  0  0  0  0
 11 12  1  0  0  0  0
 12 13  2  0  0  0  0
 14 13  1  0  0  0  0
 15 14  2  0  0  0  0
 16 11  2  0  0  0  0
 16 15  1  0  0  0  0
 17 18  1  0  0  0  0
M  END
>  <MODEL>
7

>  <REMARK>
 VINA RESULT:      -4.2     12.273     14.760
  Name = ox2_shuffle_ligand
  5 active torsions:
  status: ('A' for Active; 'I' for Inactive)
    1  A    between atoms: C_1  and  O_2
    2  A    between atoms: O_2  and  C_3
    3  A    between atoms: C_6  and  C_7
    4  A    between atoms: C_7  and  C_9
    5  A    between atoms: C_15  and  O_16
                            x       y       z     vdW  Elec       q    Type
                         _______ _______ _______ _____ _____    ______ ____

>  <TORSDO>
F 4

$$$$
ox2_shuffle_ligand
 OpenBabel10092621213D

 18 19  0  0  0  0  0  0  0  0999 V2000
    7.1880    6.0060   -5.1930 C   0  0  0  0  0  0  0  0  0  0  0  0
    7.4810    5.4190   -3.9720 C   0  0  0  0  0  3  0  0  0  0  0  0
    7.5420    4.0480   -3.8500 C   0  0  0  0  0  3  0  0  0  0  0  0
    7.3010    3.2360   -4.9520 C   0  0  0  0  0  0  0  0  0  0  0  0
    6.9950    3.8240   -6.1870 C   0  0  0  0  0  0  0  0  0  0  0  0
    6.9440    5.2090   -6.2950 C   0  0  0  0  0  3  0  0  0  0  0  0
    6.7350    8.1120   -4.1200 C   0  0  0  0  0  1  0  0  0  0  0  0
    7.1500    7.3770   -5.2420 O   0  0  0  0  0  0  0  0  0  0  0  0
    7.3650    1.7370   -4.8230 C   0  0  0  0  0  0  0  0  0  0  0  0
    6.3480    1.1100   -4.6260 O   0  0  0  0  0  0  0  0  0  0  0  0
    8.6630    1.0350   -4.9180 C   0  0  0  0  0  0  0  0  0  0  0  0
    9.7350    1.4200   -4.1220 C   0  0  0  0  0  3  0  0  0  0  0  0
   10.9490    0.7590   -4.2340 C   0  0  0  0  0  3  0  0  0  0  0  0
   11.0900   -0.2940   -5.1350 C   0  0  0  0  0  3  0  0  0  0  0  0
   10.0230   -0.6700   -5.9410 C   0  0  0  0  0  3  0  0  0  0  0  0
    8.8030    0.0050   -5.8440 C   0  0  0  0  0  3  0  0  0  0  0  0
    6.7550    3.0350   -7.2720 O   0  0  0  0  0  0  0  0  0  0  0  0
    6.1130    2.2850   -7.2060 H   0  0  0  0  0  0  0  0  0  0  0  0
  1  2  1  0  0  0  0
  2  3  2  0  0  0  0
  4  9  1  0  0  0  0
  4  3  1  0  0  0  0
  5  4  2  0  0  0  0
  6  5  1  0  0  0  0
  6  1  2  0  0  0  0
  8  1  1  0  0  0  0
  8  7  1  0  0  0  0
  9 10  2  0  0  0  0
 11  9  1  0  0  0  0
 11 12  1  0  0  0  0
 13 12  2  0  0  0  0
 14 13  1  0  0  0  0
 15 16  1  0  0  0  0
 15 14  2  0  0  0  0
 16 11  2  0  0  0  0
 17 18  1  0  0  0  0
 17  5  1  0  0  0  0
M  END
>  <MODEL>
8

>  <REMARK>
 VINA RESULT:      -4.2     10.993     13.621
  Name = ox2_shuffle_ligand
  5 active torsions:
  status: ('A' for Active; 'I' for Inactive)
    1  A    between atoms: C_1  and  O_2
    2  A    between atoms: O_2  and  C_3
    3  A    between atoms: C_6  and  C_7
    4  A    between atoms: C_7  and  C_9
    5  A    between atoms: C_15  and  O_16
                            x       y       z     vdW  Elec       q    Type
                         _______ _______ _______ _____ _____    ______ ____

>  <TORSDO>
F 4

$$$$
ox2_shuffle_ligand
 OpenBabel10092621213D

 18 19  0  0  0  0  0  0  0  0999 V2000
    3.1390    4.5960    7.2950 C   0  0  0  0  0  0  0  0  0  0  0  0
    3.8640    5.7770    7.3080 C   0  0  0  0  0  3  0  0  0  0  0  0
    3.2720    6.9670    6.9450 C   0  0  0  0  0  3  0  0  0  0  0  0
    1.9400    6.9950    6.5520 C   0  0  0  0  0  0  0  0  0  0  0  0
    1.2040    5.8020    6.5280 C   0  0  0  0  0  0  0  0  0  0  0  0
    1.8140    4.6110    6.9040 C   0  0  0  0  0  3  0  0  0  0  0  0
    4.8310    2.9350    6.8840 C   0  0  0  0  0  1  0  0  0  0  0  0
    3.7900    3.4500    7.6740 O   0  0  0  0  0  0  0  0  0  0  0  0
    1.2890    8.2930    6.1530 C   0  0  0  0  0  0  0  0  0  0  0  0
    0.6740    8.9330    6.9770 O   0  0  0  0  0  0  0  0  0  0  0  0
    1.3830    8.7760    4.7590 C   0  0  0  0  0  0  0  0  0  0  0  0
    2.6120    9.1280    4.2130 C   0  0  0  0  0  3  0  0  0  0  0  0
    2.6780    9.5920    2.9080 C   0  0  0  0  0  3  0  0  0  0  0  0
    1.5190    9.6950    2.1430 C   0  0  0  0  0  3  0  0  0  0  0  0
    0.2880    9.3570    2.6930 C   0  0  0  0  0  3  0  0  0  0  0  0
    0.2140    8.9060    4.0130 C   0  0  0  0  0  3  0  0  0  0  0  0
   -0.1030    5.8200    6.1410 O   0  0  0  0  0  0  0  0  0  0  0  0
   -0.8200    5.8390    6.8220 H   0  0  0  0  0  0  0  0  0  0  0  0
  1  2  1  0  0  0  0
  1  8  1  0  0  0  0
  3  2  2  0  0  0  0
  4  3  1  0  0  0  0
  5  4  2  0  0  0  0
  5  6  1  0  0  0  0
  6  1  2  0  0  0  0
  7  8  1  0  0  0  0
  9  4  1  0  0  0  0
  9 10  2  0  0  0  0
 11  9  1  0  0  0  0
 12 11  1  0  0  0  0
 13 12  2  0  0  0  0
 14 15  2  0  0  0  0
 14 13  1  0  0  0  0
 15 16  1  0  0  0  0
 16 11  2  0  0  0  0
 17  5  1  0  0  0  0
 17 18  1  0  0  0  0
M  END
>  <MODEL>
9

>  <REMARK>
 VINA RESULT:      -4.2      1.821      2.310
  Name = ox2_shuffle_ligand
  5 active torsions:
  status: ('A' for Active; 'I' for Inactive)
    1  A    between atoms: C_1  and  O_2
    2  A    between atoms: O_2  and  C_3
    3  A    between atoms: C_6  and  C_7
    4  A    between atoms: C_7  and  C_9
    5  A    between atoms: C_15  and  O_16
                            x       y       z     vdW  Elec       q    Type
                         _______ _______ _______ _____ _____    ______ ____

>  <TORSDO>
F 4

$$$$
