ox2_orig_f8_ligand
     RDKit          3D

 29 30  0  0  0  0  0  0  0  0999 V2000
    2.5824    6.4336   -3.3307 C   0  0  0  0  0  0  0  0  0  0  0  0
    2.4296    7.3031   -2.2468 O   0  0  0  0  0  0  0  0  0  0  0  0
    1.2744    7.2931   -1.5290 C   0  0  0  0  0  0  0  0  0  0  0  0
    1.1902    8.1637   -0.4625 C   0  0  0  0  0  0  0  0  0  0  0  0
    0.0515    8.2125    0.3083 C   0  0  0  0  0  0  0  0  0  0  0  0
   -1.0155    7.4003    0.0096 C   0  0  0  0  0  0  0  0  0  0  0  0
   -2.2166    7.4704    0.8486 C   0  0  0  0  0  0  0  0  0  0  0  0
   -2.6599    6.4996    1.1498 O   0  0  0  0  0  0  0  0  0  0  0  0
   -2.8262    8.6196    1.4695 C   0  0  0  0  0  0  0  0  0  0  0  0
   -2.8532    9.8219    0.8193 C   0  0  0  0  0  0  0  0  0  0  0  0
   -3.4447   10.9179    1.4071 C   0  0  0  0  0  0  0  0  0  0  0  0
   -3.9998   10.8188    2.6608 C   0  0  0  0  0  0  0  0  0  0  0  0
   -3.9936    9.6035    3.3116 C   0  0  0  0  0  0  0  0  0  0  0  0
   -3.4167    8.4917    2.7158 C   0  0  0  0  0  0  0  0  0  0  0  0
   -0.9339    6.5060   -1.0556 C   0  0  0  0  0  0  0  0  0  0  0  0
   -1.9662    5.6922   -1.3291 O   0  0  0  0  0  0  0  0  0  0  0  0
    0.2121    6.4642   -1.8171 C   0  0  0  0  0  0  0  0  0  0  0  0
    3.6478    6.1925   -3.4600 H   0  0  0  0  0  0  0  0  0  0  0  0
    2.0175    5.5089   -3.1414 H   0  0  0  0  0  0  0  0  0  0  0  0
    2.2020    6.9152   -4.2436 H   0  0  0  0  0  0  0  0  0  0  0  0
    2.0385    8.8230   -0.2268 H   0  0  0  0  0  0  0  0  0  0  0  0
   -0.0044    8.9018    1.1637 H   0  0  0  0  0  0  0  0  0  0  0  0
   -2.4001    9.9144   -0.1787 H   0  0  0  0  0  0  0  0  0  0  0  0
   -3.4731   11.8778    0.8706 H   0  0  0  0  0  0  0  0  0  0  0  0
   -4.4454   11.7025    3.1411 H   0  0  0  0  0  0  0  0  0  0  0  0
   -4.4489    9.5150    4.3091 H   0  0  0  0  0  0  0  0  0  0  0  0
   -3.4281    7.5182    3.2280 H   0  0  0  0  0  0  0  0  0  0  0  0
   -1.9084    5.0566   -2.0859 H   0  0  0  0  0  0  0  0  0  0  0  0
    0.2803    5.7635   -2.6623 H   0  0  0  0  0  0  0  0  0  0  0  0
  2  1  1  0
  3  2  1  0
  4  3  1  0
  5  4  2  0
  6  5  1  0
  7  6  1  0
  8  7  2  0
  9  7  1  0
 10  9  2  0
 11 10  1  0
 12 11  2  0
 13 12  1  0
 14 13  2  0
 14  9  1  0
 15  6  2  0
 16 15  1  0
 17 15  1  0
 17  3  2  0
  1 18  1  0
  1 19  1  0
  1 20  1  0
  4 21  1  0
  5 22  1  0
 10 23  1  0
 11 24  1  0
 12 25  1  0
 13 26  1  0
 14 27  1  0
 16 28  1  0
 17 29  1  0
M  END
$$$$
