ox2_orig_f8_ligand
 OpenBabel10092621203D

 18 19  0  0  0  0  0  0  0  0999 V2000
   -9.3700    8.4300    1.5190 C   0  0  0  0  0  0  0  0  0  0  0  0
   -8.0870    8.8640    1.2610 C   0  0  0  0  0  3  0  0  0  0  0  0
   -7.6380    8.9760   -0.0350 C   0  0  0  0  0  3  0  0  0  0  0  0
   -8.4650    8.6420   -1.0800 C   0  0  0  0  0  0  0  0  0  0  0  0
   -9.7680    8.2170   -0.8290 C   0  0  0  0  0  0  0  0  0  0  0  0
  -10.2060    8.1130    0.4720 C   0  0  0  0  0  3  0  0  0  0  0  0
  -10.7510    7.4510    3.2020 C   0  0  0  0  0  1  0  0  0  0  0  0
   -9.7420    8.3420    2.8250 O   0  0  0  0  0  0  0  0  0  0  0  0
   -7.9620    8.7730   -2.4520 C   0  0  0  0  0  0  0  0  0  0  0  0
   -7.6500    7.8330   -2.9500 O   0  0  0  0  0  0  0  0  0  0  0  0
   -7.9530    9.9310   -3.3110 C   0  0  0  0  0  0  0  0  0  0  0  0
   -6.7690   10.5030   -3.6850 C   0  0  0  0  0  3  0  0  0  0  0  0
   -6.7600   11.6030   -4.5150 C   0  0  0  0  0  3  0  0  0  0  0  0
   -7.9420   12.1470   -4.9610 C   0  0  0  0  0  3  0  0  0  0  0  0
   -9.1370   11.5610   -4.6030 C   0  0  0  0  0  3  0  0  0  0  0  0
   -9.1510   10.4410   -3.7840 C   0  0  0  0  0  3  0  0  0  0  0  0
  -10.5850    7.9180   -1.8520 O   0  0  0  0  0  0  0  0  0  0  0  0
  -11.4160    8.4370   -1.9880 H   0  0  0  0  0  0  0  0  0  0  0  0
  1  8  1  0  0  0  0
  2  1  1  0  0  0  0
  3  2  2  0  0  0  0
  4  5  2  0  0  0  0
  4  3  1  0  0  0  0
  5  6  1  0  0  0  0
  6  1  2  0  0  0  0
  8  7  1  0  0  0  0
  9  4  1  0  0  0  0
 10  9  2  0  0  0  0
 11  9  1  0  0  0  0
 12 11  1  0  0  0  0
 13 12  2  0  0  0  0
 14 15  2  0  0  0  0
 14 13  1  0  0  0  0
 15 16  1  0  0  0  0
 16 11  2  0  0  0  0
 17  5  1  0  0  0  0
 18 17  1  0  0  0  0
M  END
>  <MODEL>
1

>  <REMARK>
 VINA RESULT:      -4.5      0.000      0.000
  Name = ox2_orig_f8_ligand
  5 active torsions:
  status: ('A' for Active; 'I' for Inactive)
    1  A    between atoms: C_1  and  O_2
    2  A    between atoms: O_2  and  C_3
    3  A    between atoms: C_6  and  C_7
    4  A    between atoms: C_7  and  C_9
    5  A    between atoms: C_15  and  O_16
                            x       y       z     vdW  Elec       q    Type
                         _______ _______ _______ _____ _____    ______ ____

>  <TORSDO>
F 4

$$$$
ox2_orig_f8_ligand
 OpenBabel10092621203D

 18 19  0  0  0  0  0  0  0  0999 V2000
   -0.7700    9.2630    3.9610 C   0  0  0  0  0  0  0  0  0  0  0  0
    0.3200    8.5290    4.3770 C   0  0  0  0  0  3  0  0  0  0  0  0
    1.1160    8.9850    5.4040 C   0  0  0  0  0  3  0  0  0  0  0  0
    0.8320   10.1840    6.0130 C   0  0  0  0  0  0  0  0  0  0  0  0
   -0.2770   10.9250    5.6090 C   0  0  0  0  0  0  0  0  0  0  0  0
   -1.0670   10.4560    4.5830 C   0  0  0  0  0  3  0  0  0  0  0  0
   -0.9130    8.5370    1.6920 C   0  0  0  0  0  1  0  0  0  0  0  0
   -1.5080    8.7510    2.9390 O   0  0  0  0  0  0  0  0  0  0  0  0
    1.6940   10.6450    7.1060 C   0  0  0  0  0  0  0  0  0  0  0  0
    2.3780   11.4840    6.8690 O   0  0  0  0  0  0  0  0  0  0  0  0
    1.6780   10.2670    8.4970 C   0  0  0  0  0  0  0  0  0  0  0  0
    0.6420    9.5300    9.0000 C   0  0  0  0  0  3  0  0  0  0  0  0
    0.6320    9.1580   10.3260 C   0  0  0  0  0  3  0  0  0  0  0  0
    1.6550    9.5390   11.1620 C   0  0  0  0  0  3  0  0  0  0  0  0
    2.7110   10.2650   10.6550 C   0  0  0  0  0  3  0  0  0  0  0  0
    2.7370   10.6240    9.3160 C   0  0  0  0  0  3  0  0  0  0  0  0
   -0.5700   12.0820    6.2230 O   0  0  0  0  0  0  0  0  0  0  0  0
   -0.0380   12.3750    7.0050 H   0  0  0  0  0  0  0  0  0  0  0  0
  1  2  2  0  0  0  0
  1  6  1  0  0  0  0
  2  3  1  0  0  0  0
  3  4  2  0  0  0  0
  4  9  1  0  0  0  0
  5  4  1  0  0  0  0
  5 17  1  0  0  0  0
  6  5  2  0  0  0  0
  7  8  1  0  0  0  0
  8  1  1  0  0  0  0
  9 11  1  0  0  0  0
 10  9  2  0  0  0  0
 11 12  2  0  0  0  0
 11 16  1  0  0  0  0
 12 13  1  0  0  0  0
 13 14  2  0  0  0  0
 15 14  1  0  0  0  0
 16 15  2  0  0  0  0
 17 18  1  0  0  0  0
M  END
>  <MODEL>
2

>  <REMARK>
 VINA RESULT:      -4.5     10.998     13.671
  Name = ox2_orig_f8_ligand
  5 active torsions:
  status: ('A' for Active; 'I' for Inactive)
    1  A    between atoms: C_1  and  O_2
    2  A    between atoms: O_2  and  C_3
    3  A    between atoms: C_6  and  C_7
    4  A    between atoms: C_7  and  C_9
    5  A    between atoms: C_15  and  O_16
                            x       y       z     vdW  Elec       q    Type
                         _______ _______ _______ _____ _____    ______ ____

>  <TORSDO>
F 4

$$$$
ox2_orig_f8_ligand
 OpenBabel10092621203D

 18 19  0  0  0  0  0  0  0  0999 V2000
   -8.4810    8.4600    1.1390 C   0  0  0  0  0  0  0  0  0  0  0  0
   -9.4760    8.5040    0.1850 C   0  0  0  0  0  3  0  0  0  0  0  0
   -9.1640    8.7420   -1.1350 C   0  0  0  0  0  3  0  0  0  0  0  0
   -7.8580    8.9500   -1.5060 C   0  0  0  0  0  0  0  0  0  0  0  0
   -6.8450    8.8920   -0.5500 C   0  0  0  0  0  0  0  0  0  0  0  0
   -7.1690    8.6490    0.7650 C   0  0  0  0  0  3  0  0  0  0  0  0
   -9.9890    7.4320    2.6770 C   0  0  0  0  0  1  0  0  0  0  0  0
   -8.8650    8.2230    2.4230 O   0  0  0  0  0  0  0  0  0  0  0  0
   -7.5530    9.1990   -2.9180 C   0  0  0  0  0  0  0  0  0  0  0  0
   -7.1580    8.3370   -3.4920 O   0  0  0  0  0  0  0  0  0  0  0  0
   -7.8330   10.3660   -3.7170 C   0  0  0  0  0  0  0  0  0  0  0  0
   -9.1230   10.7040   -4.0160 C   0  0  0  0  0  3  0  0  0  0  0  0
   -9.3920   11.8260   -4.7690 C   0  0  0  0  0  3  0  0  0  0  0  0
   -8.3650   12.6090   -5.2400 C   0  0  0  0  0  3  0  0  0  0  0  0
   -7.0630   12.2840   -4.9230 C   0  0  0  0  0  3  0  0  0  0  0  0
   -6.7880   11.1670   -4.1480 C   0  0  0  0  0  3  0  0  0  0  0  0
   -5.5660    9.0670   -0.9180 O   0  0  0  0  0  0  0  0  0  0  0  0
   -5.3520    9.5910   -1.7300 H   0  0  0  0  0  0  0  0  0  0  0  0
  1  8  1  0  0  0  0
  2  1  2  0  0  0  0
  3  2  1  0  0  0  0
  4  3  2  0  0  0  0
  4  5  1  0  0  0  0
  5  6  2  0  0  0  0
  6  1  1  0  0  0  0
  8  7  1  0  0  0  0
  9  4  1  0  0  0  0
 10  9  2  0  0  0  0
 11  9  1  0  0  0  0
 12 11  1  0  0  0  0
 13 12  2  0  0  0  0
 14 15  2  0  0  0  0
 14 13  1  0  0  0  0
 15 16  1  0  0  0  0
 16 11  2  0  0  0  0
 17  5  1  0  0  0  0
 18 17  1  0  0  0  0
M  END
>  <MODEL>
3

>  <REMARK>
 VINA RESULT:      -4.4      1.189      2.201
  Name = ox2_orig_f8_ligand
  5 active torsions:
  status: ('A' for Active; 'I' for Inactive)
    1  A    between atoms: C_1  and  O_2
    2  A    between atoms: O_2  and  C_3
    3  A    between atoms: C_6  and  C_7
    4  A    between atoms: C_7  and  C_9
    5  A    between atoms: C_15  and  O_16
                            x       y       z     vdW  Elec       q    Type
                         _______ _______ _______ _____ _____    ______ ____

>  <TORSDO>
F 4

$$$$
ox2_orig_f8_ligand
 OpenBabel10092621203D

 18 19  0  0  0  0  0  0  0  0999 V2000
   -1.4260    9.8870    3.7030 C   0  0  0  0  0  0  0  0  0  0  0  0
   -1.4570   10.9430    4.5910 C   0  0  0  0  0  3  0  0  0  0  0  0
   -0.4410   11.1150    5.5030 C   0  0  0  0  0  3  0  0  0  0  0  0
    0.6060   10.2260    5.5410 C   0  0  0  0  0  0  0  0  0  0  0  0
    0.6530    9.1650    4.6380 C   0  0  0  0  0  0  0  0  0  0  0  0
   -0.3680    9.0060    3.7290 C   0  0  0  0  0  3  0  0  0  0  0  0
   -2.4600    8.7740    1.8630 C   0  0  0  0  0  1  0  0  0  0  0  0
   -2.4670    9.7800    2.8330 O   0  0  0  0  0  0  0  0  0  0  0  0
    1.6770   10.4340    6.5210 C   0  0  0  0  0  0  0  0  0  0  0  0
    2.5850   10.9510    6.1510 O   0  0  0  0  0  0  0  0  0  0  0  0
    1.6660   10.1980    7.9440 C   0  0  0  0  0  0  0  0  0  0  0  0
    2.6730   10.6840    8.7310 C   0  0  0  0  0  3  0  0  0  0  0  0
    2.6570   10.4690   10.0920 C   0  0  0  0  0  3  0  0  0  0  0  0
    1.6370    9.7500   10.6700 C   0  0  0  0  0  3  0  0  0  0  0  0
    0.6090    9.2770    9.8830 C   0  0  0  0  0  3  0  0  0  0  0  0
    0.6100    9.5080    8.5150 C   0  0  0  0  0  3  0  0  0  0  0  0
    1.6900    8.3140    4.6580 O   0  0  0  0  0  0  0  0  0  0  0  0
    2.4050    8.4200    5.3350 H   0  0  0  0  0  0  0  0  0  0  0  0
  1  6  2  0  0  0  0
  1  2  1  0  0  0  0
  2  3  2  0  0  0  0
  3  4  1  0  0  0  0
  4  9  1  0  0  0  0
  5 17  1  0  0  0  0
  5  4  2  0  0  0  0
  6  5  1  0  0  0  0
  7  8  1  0  0  0  0
  8  1  1  0  0  0  0
  9 11  1  0  0  0  0
 10  9  2  0  0  0  0
 11 16  2  0  0  0  0
 11 12  1  0  0  0  0
 12 13  2  0  0  0  0
 13 14  1  0  0  0  0
 15 14  2  0  0  0  0
 16 15  1  0  0  0  0
 17 18  1  0  0  0  0
M  END
>  <MODEL>
4

>  <REMARK>
 VINA RESULT:      -4.3     10.659     13.177
  Name = ox2_orig_f8_ligand
  5 active torsions:
  status: ('A' for Active; 'I' for Inactive)
    1  A    between atoms: C_1  and  O_2
    2  A    between atoms: O_2  and  C_3
    3  A    between atoms: C_6  and  C_7
    4  A    between atoms: C_7  and  C_9
    5  A    between atoms: C_15  and  O_16
                            x       y       z     vdW  Elec       q    Type
                         _______ _______ _______ _____ _____    ______ ____

>  <TORSDO>
F 4

$$$$
ox2_orig_f8_ligand
 OpenBabel10092621203D

 18 19  0  0  0  0  0  0  0  0999 V2000
   -6.7380    9.0810    1.6580 C   0  0  0  0  0  0  0  0  0  0  0  0
   -8.0340    8.8620    1.2420 C   0  0  0  0  0  3  0  0  0  0  0  0
   -8.3340    8.7980   -0.1000 C   0  0  0  0  0  3  0  0  0  0  0  0
   -7.3400    8.9650   -1.0340 C   0  0  0  0  0  0  0  0  0  0  0  0
   -6.0250    9.1720   -0.6230 C   0  0  0  0  0  0  0  0  0  0  0  0
   -5.7380    9.2310    0.7220 C   0  0  0  0  0  3  0  0  0  0  0  0
   -5.9380   10.2740    3.5640 C   0  0  0  0  0  1  0  0  0  0  0  0
   -6.5190    9.1350    3.0000 O   0  0  0  0  0  0  0  0  0  0  0  0
   -7.6850    8.8900   -2.4580 C   0  0  0  0  0  0  0  0  0  0  0  0
   -7.5580    7.9000   -2.9400 O   0  0  0  0  0  0  0  0  0  0  0  0
   -8.3120    9.8830   -3.2950 C   0  0  0  0  0  0  0  0  0  0  0  0
   -9.6720    9.9130   -3.4290 C   0  0  0  0  0  3  0  0  0  0  0  0
  -10.2720   10.8680   -4.2190 C   0  0  0  0  0  3  0  0  0  0  0  0
   -9.5080   11.7910   -4.8950 C   0  0  0  0  0  3  0  0  0  0  0  0
   -8.1380   11.7770   -4.7460 C   0  0  0  0  0  3  0  0  0  0  0  0
   -7.5300   10.8300   -3.9350 C   0  0  0  0  0  3  0  0  0  0  0  0
   -5.0500    9.3070   -1.5360 O   0  0  0  0  0  0  0  0  0  0  0  0
   -4.7500    8.5220   -2.0590 H   0  0  0  0  0  0  0  0  0  0  0  0
  1  8  1  0  0  0  0
  2  1  1  0  0  0  0
  3  2  2  0  0  0  0
  4  5  2  0  0  0  0
  4  3  1  0  0  0  0
  5  6  1  0  0  0  0
  6  1  2  0  0  0  0
  8  7  1  0  0  0  0
  9  4  1  0  0  0  0
 10  9  2  0  0  0  0
 11  9  1  0  0  0  0
 12 11  1  0  0  0  0
 13 12  2  0  0  0  0
 14 15  2  0  0  0  0
 14 13  1  0  0  0  0
 15 16  1  0  0  0  0
 16 11  2  0  0  0  0
 17  5  1  0  0  0  0
 18 17  1  0  0  0  0
M  END
>  <MODEL>
5

>  <REMARK>
 VINA RESULT:      -4.2      1.699      2.960
  Name = ox2_orig_f8_ligand
  5 active torsions:
  status: ('A' for Active; 'I' for Inactive)
    1  A    between atoms: C_1  and  O_2
    2  A    between atoms: O_2  and  C_3
    3  A    between atoms: C_6  and  C_7
    4  A    between atoms: C_7  and  C_9
    5  A    between atoms: C_15  and  O_16
                            x       y       z     vdW  Elec       q    Type
                         _______ _______ _______ _____ _____    ______ ____

>  <TORSDO>
F 4

$$$$
ox2_orig_f8_ligand
 OpenBabel10092621203D

 18 19  0  0  0  0  0  0  0  0999 V2000
    3.6700    8.6560    3.2810 C   0  0  0  0  0  0  0  0  0  0  0  0
    4.3230    9.6120    4.0320 C   0  0  0  0  0  3  0  0  0  0  0  0
    3.6700   10.2570    5.0570 C   0  0  0  0  0  3  0  0  0  0  0  0
    2.3570    9.9590    5.3310 C   0  0  0  0  0  0  0  0  0  0  0  0
    1.6940    8.9830    4.5880 C   0  0  0  0  0  0  0  0  0  0  0  0
    2.3590    8.3430    3.5670 C   0  0  0  0  0  3  0  0  0  0  0  0
    5.2820    7.0400    2.5830 C   0  0  0  0  0  1  0  0  0  0  0  0
    4.3790    8.0630    2.2820 O   0  0  0  0  0  0  0  0  0  0  0  0
    1.6850   10.6580    6.4310 C   0  0  0  0  0  0  0  0  0  0  0  0
    0.9950   11.4760    6.1420 O   0  0  0  0  0  0  0  0  0  0  0  0
    1.6730   10.3410    7.8380 C   0  0  0  0  0  0  0  0  0  0  0  0
    0.6590    9.5920    8.3670 C   0  0  0  0  0  3  0  0  0  0  0  0
    0.6540    9.2790    9.7090 C   0  0  0  0  0  3  0  0  0  0  0  0
    1.6590    9.7290   10.5320 C   0  0  0  0  0  3  0  0  0  0  0  0
    2.6940   10.4650    9.9980 C   0  0  0  0  0  3  0  0  0  0  0  0
    2.7160   10.7670    8.6440 C   0  0  0  0  0  3  0  0  0  0  0  0
    0.4200    8.6720    4.8750 O   0  0  0  0  0  0  0  0  0  0  0  0
    0.1530    7.7240    4.9730 H   0  0  0  0  0  0  0  0  0  0  0  0
  1  6  2  0  0  0  0
  1  2  1  0  0  0  0
  2  3  2  0  0  0  0
  3  4  1  0  0  0  0
  4  9  1  0  0  0  0
  5 17  1  0  0  0  0
  5  4  2  0  0  0  0
  6  5  1  0  0  0  0
  8  7  1  0  0  0  0
  8  1  1  0  0  0  0
  9 11  1  0  0  0  0
 10  9  2  0  0  0  0
 11 12  2  0  0  0  0
 11 16  1  0  0  0  0
 12 13  1  0  0  0  0
 13 14  2  0  0  0  0
 15 14  1  0  0  0  0
 16 15  2  0  0  0  0
 17 18  1  0  0  0  0
M  END
>  <MODEL>
6

>  <REMARK>
 VINA RESULT:      -4.2     12.258     14.591
  Name = ox2_orig_f8_ligand
  5 active torsions:
  status: ('A' for Active; 'I' for Inactive)
    1  A    between atoms: C_1  and  O_2
    2  A    between atoms: O_2  and  C_3
    3  A    between atoms: C_6  and  C_7
    4  A    between atoms: C_7  and  C_9
    5  A    between atoms: C_15  and  O_16
                            x       y       z     vdW  Elec       q    Type
                         _______ _______ _______ _____ _____    ______ ____

>  <TORSDO>
F 4

$$$$
ox2_orig_f8_ligand
 OpenBabel10092621203D

 18 19  0  0  0  0  0  0  0  0999 V2000
   -7.5060   12.2190   -4.9650 C   0  0  0  0  0  0  0  0  0  0  0  0
   -8.7680   11.7530   -4.6630 C   0  0  0  0  0  3  0  0  0  0  0  0
   -8.9280   10.6210   -3.8970 C   0  0  0  0  0  3  0  0  0  0  0  0
   -7.8260    9.9400   -3.4390 C   0  0  0  0  0  0  0  0  0  0  0  0
   -6.5470   10.4120   -3.7260 C   0  0  0  0  0  0  0  0  0  0  0  0
   -6.4000   11.5470   -4.4900 C   0  0  0  0  0  3  0  0  0  0  0  0
   -8.5720   13.8370   -6.3580 C   0  0  0  0  0  1  0  0  0  0  0  0
   -7.4260   13.3420   -5.7290 O   0  0  0  0  0  0  0  0  0  0  0  0
   -8.0240    8.7380   -2.6230 C   0  0  0  0  0  0  0  0  0  0  0  0
   -7.5340    7.8130   -2.9870 O   0  0  0  0  0  0  0  0  0  0  0  0
   -8.6440    8.6110   -1.3270 C   0  0  0  0  0  0  0  0  0  0  0  0
   -7.9290    8.8780   -0.1920 C   0  0  0  0  0  3  0  0  0  0  0  0
   -8.5230    8.7680    1.0460 C   0  0  0  0  0  3  0  0  0  0  0  0
   -9.8360    8.3730    1.1540 C   0  0  0  0  0  3  0  0  0  0  0  0
  -10.5660    8.1240    0.0120 C   0  0  0  0  0  3  0  0  0  0  0  0
   -9.9780    8.2520   -1.2380 C   0  0  0  0  0  3  0  0  0  0  0  0
   -5.4710    9.7620   -3.2540 O   0  0  0  0  0  0  0  0  0  0  0  0
   -4.5630   10.0490   -3.5230 H   0  0  0  0  0  0  0  0  0  0  0  0
  1  2  2  0  0  0  0
  1  6  1  0  0  0  0
  2  3  1  0  0  0  0
  3  4  2  0  0  0  0
  4  9  1  0  0  0  0
  5  4  1  0  0  0  0
  5 17  1  0  0  0  0
  6  5  2  0  0  0  0
  7  8  1  0  0  0  0
  8  1  1  0  0  0  0
  9 11  1  0  0  0  0
 10  9  2  0  0  0  0
 11 16  2  0  0  0  0
 11 12  1  0  0  0  0
 12 13  2  0  0  0  0
 13 14  1  0  0  0  0
 15 14  2  0  0  0  0
 16 15  1  0  0  0  0
 18 17  1  0  0  0  0
M  END
>  <MODEL>
7

>  <REMARK>
 VINA RESULT:      -4.2      1.840      6.155
  Name = ox2_orig_f8_ligand
  5 active torsions:
  status: ('A' for Active; 'I' for Inactive)
    1  A    between atoms: C_1  and  O_2
    2  A    between atoms: O_2  and  C_3
    3  A    between atoms: C_6  and  C_7
    4  A    between atoms: C_7  and  C_9
    5  A    between atoms: C_15  and  O_16
                            x       y       z     vdW  Elec       q    Type
                         _______ _______ _______ _____ _____    ______ ____

>  <TORSDO>
F 4

$$$$
ox2_orig_f8_ligand
 OpenBabel10092621203D

 18 19  0  0  0  0  0  0  0  0999 V2000
   -5.9050    9.6780    2.7440 C   0  0  0  0  0  0  0  0  0  0  0  0
   -6.4400   10.7550    2.0690 C   0  0  0  0  0  3  0  0  0  0  0  0
   -6.6320   10.6990    0.7070 C   0  0  0  0  0  3  0  0  0  0  0  0
   -6.2770    9.5690    0.0100 C   0  0  0  0  0  0  0  0  0  0  0  0
   -5.7500    8.4700    0.6860 C   0  0  0  0  0  0  0  0  0  0  0  0
   -5.5670    8.5380    2.0480 C   0  0  0  0  0  3  0  0  0  0  0  0
   -6.0600   11.0180    4.7130 C   0  0  0  0  0  1  0  0  0  0  0  0
   -5.7420    9.8080    4.0890 O   0  0  0  0  0  0  0  0  0  0  0  0
   -6.4940    9.5340   -1.4400 C   0  0  0  0  0  0  0  0  0  0  0  0
   -5.5920    9.3810   -2.0660 O   0  0  0  0  0  0  0  0  0  0  0  0
   -7.7360    9.5180   -2.1730 C   0  0  0  0  0  0  0  0  0  0  0  0
   -7.9530   10.4160   -3.1820 C   0  0  0  0  0  3  0  0  0  0  0  0
   -9.1340   10.3940   -3.8900 C   0  0  0  0  0  3  0  0  0  0  0  0
  -10.1130    9.4800   -3.5800 C   0  0  0  0  0  3  0  0  0  0  0  0
   -9.8900    8.5590   -2.5780 C   0  0  0  0  0  3  0  0  0  0  0  0
   -8.6940    8.5640   -1.8750 C   0  0  0  0  0  3  0  0  0  0  0  0
   -5.4300    7.3570    0.0080 O   0  0  0  0  0  0  0  0  0  0  0  0
   -4.5920    6.8740    0.2170 H   0  0  0  0  0  0  0  0  0  0  0  0
  1  8  1  0  0  0  0
  2  1  1  0  0  0  0
  3  2  2  0  0  0  0
  4  5  2  0  0  0  0
  4  3  1  0  0  0  0
  5  6  1  0  0  0  0
  6  1  2  0  0  0  0
  8  7  1  0  0  0  0
  9  4  1  0  0  0  0
 10  9  2  0  0  0  0
 11 16  1  0  0  0  0
 11  9  1  0  0  0  0
 12 11  2  0  0  0  0
 13 14  2  0  0  0  0
 13 12  1  0  0  0  0
 14 15  1  0  0  0  0
 15 16  2  0  0  0  0
 17 18  1  0  0  0  0
 17  5  1  0  0  0  0
M  END
>  <MODEL>
8

>  <REMARK>
 VINA RESULT:      -4.2      2.747      3.595
  Name = ox2_orig_f8_ligand
  5 active torsions:
  status: ('A' for Active; 'I' for Inactive)
    1  A    between atoms: C_1  and  O_2
    2  A    between atoms: O_2  and  C_3
    3  A    between atoms: C_6  and  C_7
    4  A    between atoms: C_7  and  C_9
    5  A    between atoms: C_15  and  O_16
                            x       y       z     vdW  Elec       q    Type
                         _______ _______ _______ _____ _____    ______ ____

>  <TORSDO>
F 4

$$$$
ox2_orig_f8_ligand
 OpenBabel10092621203D

 18 19  0  0  0  0  0  0  0  0999 V2000
   -1.7960    8.6580   -2.2700 C   0  0  0  0  0  0  0  0  0  0  0  0
   -2.3900    9.7760   -1.7230 C   0  0  0  0  0  3  0  0  0  0  0  0
   -2.7040    9.8140   -0.3840 C   0  0  0  0  0  3  0  0  0  0  0  0
   -2.4370    8.7280    0.4150 C   0  0  0  0  0  0  0  0  0  0  0  0
   -1.8230    7.5990   -0.1260 C   0  0  0  0  0  0  0  0  0  0  0  0
   -1.5110    7.5760   -1.4660 C   0  0  0  0  0  3  0  0  0  0  0  0
   -0.4660    7.9270   -4.1120 C   0  0  0  0  0  1  0  0  0  0  0  0
   -1.5180    8.6930   -3.6010 O   0  0  0  0  0  0  0  0  0  0  0  0
   -2.7790    8.7940    1.8400 C   0  0  0  0  0  0  0  0  0  0  0  0
   -1.9680    8.5350    2.5500 O   0  0  0  0  0  0  0  0  0  0  0  0
   -3.9780    9.2960    2.4640 C   0  0  0  0  0  0  0  0  0  0  0  0
   -5.1940    8.7490    2.1620 C   0  0  0  0  0  3  0  0  0  0  0  0
   -6.3380    9.2200    2.7670 C   0  0  0  0  0  3  0  0  0  0  0  0
   -6.2710   10.2560    3.6680 C   0  0  0  0  0  3  0  0  0  0  0  0
   -5.0450   10.7970    3.9920 C   0  0  0  0  0  3  0  0  0  0  0  0
   -3.8870   10.3120    3.4010 C   0  0  0  0  0  3  0  0  0  0  0  0
   -1.5370    6.5500    0.6610 O   0  0  0  0  0  0  0  0  0  0  0  0
   -1.3890    5.6570    0.2600 H   0  0  0  0  0  0  0  0  0  0  0  0
  1  2  2  0  0  0  0
  1  6  1  0  0  0  0
  2  3  1  0  0  0  0
  3  4  2  0  0  0  0
  4  9  1  0  0  0  0
  5  4  1  0  0  0  0
  5 17  1  0  0  0  0
  6  5  2  0  0  0  0
  7  8  1  0  0  0  0
  8  1  1  0  0  0  0
  9 11  1  0  0  0  0
  9 10  2  0  0  0  0
 11 16  1  0  0  0  0
 12 11  2  0  0  0  0
 12 13  1  0  0  0  0
 13 14  2  0  0  0  0
 14 15  1  0  0  0  0
 16 15  2  0  0  0  0
 18 17  1  0  0  0  0
M  END
>  <MODEL>
9

>  <REMARK>
 VINA RESULT:      -4.0      5.800      8.359
  Name = ox2_orig_f8_ligand
  5 active torsions:
  status: ('A' for Active; 'I' for Inactive)
    1  A    between atoms: C_1  and  O_2
    2  A    between atoms: O_2  and  C_3
    3  A    between atoms: C_6  and  C_7
    4  A    between atoms: C_7  and  C_9
    5  A    between atoms: C_15  and  O_16
                            x       y       z     vdW  Elec       q    Type
                         _______ _______ _______ _____ _____    ______ ____

>  <TORSDO>
F 4

$$$$
