bgox31_2_ligand
     RDKit          3D

 29 30  0  0  0  0  0  0  0  0999 V2000
    4.9699   -9.3206   -1.0784 C   0  0  0  0  0  0  0  0  0  0  0  0
    5.0333   -7.9541   -0.7539 O   0  0  0  0  0  0  0  0  0  0  0  0
    4.7479   -7.0859   -1.7325 C   0  0  0  0  0  0  0  0  0  0  0  0
    5.2139   -5.7727   -1.6217 C   0  0  0  0  0  0  0  0  0  0  0  0
    4.9778   -4.8698   -2.6275 C   0  0  0  0  0  0  0  0  0  0  0  0
    4.2744   -5.2855   -3.7245 C   0  0  0  0  0  0  0  0  0  0  0  0
    4.0554   -4.2909   -4.8280 C   0  0  0  0  0  0  0  0  0  0  0  0
    3.0212   -4.3436   -5.4340 O   0  0  0  0  0  0  0  0  0  0  0  0
    4.9789   -3.2261   -5.0904 C   0  0  0  0  0  0  0  0  0  0  0  0
    4.4759   -2.1035   -5.7062 C   0  0  0  0  0  0  0  0  0  0  0  0
    5.3461   -1.0873   -6.0316 C   0  0  0  0  0  0  0  0  0  0  0  0
    6.6773   -1.2203   -5.7180 C   0  0  0  0  0  0  0  0  0  0  0  0
    7.1538   -2.3001   -5.1466 C   0  0  0  0  0  0  0  0  0  0  0  0
    6.2843   -3.3161   -4.8105 C   0  0  0  0  0  0  0  0  0  0  0  0
    3.7682   -6.5708   -3.8221 C   0  0  0  0  0  0  0  0  0  0  0  0
    3.0307   -6.8877   -4.8974 O   0  0  0  0  0  0  0  0  0  0  0  0
    4.0053   -7.4561   -2.8151 C   0  0  0  0  0  0  0  0  0  0  0  0
    5.1959   -9.4548   -2.1466 H   0  0  0  0  0  0  0  0  0  0  0  0
    5.7045   -9.8750   -0.4759 H   0  0  0  0  0  0  0  0  0  0  0  0
    3.9598   -9.7014   -0.8666 H   0  0  0  0  0  0  0  0  0  0  0  0
    5.7715   -5.4623   -0.7257 H   0  0  0  0  0  0  0  0  0  0  0  0
    5.3456   -3.8358   -2.5533 H   0  0  0  0  0  0  0  0  0  0  0  0
    3.4029   -2.0196   -5.9333 H   0  0  0  0  0  0  0  0  0  0  0  0
    4.9804   -0.1808   -6.5362 H   0  0  0  0  0  0  0  0  0  0  0  0
    7.3649   -0.3947   -5.9534 H   0  0  0  0  0  0  0  0  0  0  0  0
    8.2298   -2.3938   -4.9389 H   0  0  0  0  0  0  0  0  0  0  0  0
    6.6694   -4.2138   -4.3049 H   0  0  0  0  0  0  0  0  0  0  0  0
    2.6576   -7.7999   -4.9904 H   0  0  0  0  0  0  0  0  0  0  0  0
    3.5958   -8.4754   -2.8750 H   0  0  0  0  0  0  0  0  0  0  0  0
  2  1  1  0
  3  2  1  0
  4  3  1  0
  5  4  2  0
  6  5  1  0
  7  6  1  0
  8  7  2  0
  9  7  1  0
 10  9  2  0
 11 10  1  0
 12 11  2  0
 13 12  1  0
 14 13  2  0
 14  9  1  0
 15  6  2  0
 16 15  1  0
 17 15  1  0
 17  3  2  0
  1 18  1  0
  1 19  1  0
  1 20  1  0
  4 21  1  0
  5 22  1  0
 10 23  1  0
 11 24  1  0
 12 25  1  0
 13 26  1  0
 14 27  1  0
 16 28  1  0
 17 29  1  0
M  END
$$$$
