bgox31_2_ligand
 OpenBabel10092621233D

 18 19  0  0  0  0  0  0  0  0999 V2000
    1.0800   -3.4670   -6.4290 C   0  0  0  0  0  0  0  0  0  0  0  0
    1.6520   -2.1920   -6.4090 C   0  0  0  0  0  3  0  0  0  0  0  0
    0.9060   -1.0950   -6.7580 C   0  0  0  0  0  3  0  0  0  0  0  0
   -0.4010   -1.2820   -7.1150 C   0  0  0  0  0  0  0  0  0  0  0  0
   -0.9900   -2.5360   -7.0940 C   0  0  0  0  0  0  0  0  0  0  0  0
   -0.2400   -3.6160   -6.7400 C   0  0  0  0  0  3  0  0  0  0  0  0
    1.7830   -4.9940   -4.8030 C   0  0  0  0  0  1  0  0  0  0  0  0
    1.8470   -4.5210   -6.1250 O   0  0  0  0  0  0  0  0  0  0  0  0
   -1.1910   -0.0730   -7.5260 C   0  0  0  0  0  0  0  0  0  0  0  0
   -1.4410    0.0640   -8.6920 O   0  0  0  0  0  0  0  0  0  0  0  0
   -1.7460    0.8380   -6.5680 C   0  0  0  0  0  0  0  0  0  0  0  0
   -3.0890    0.7130   -6.2960 C   0  0  0  0  0  3  0  0  0  0  0  0
   -3.6710    1.6120   -5.4300 C   0  0  0  0  0  3  0  0  0  0  0  0
   -2.8910    2.5870   -4.8560 C   0  0  0  0  0  3  0  0  0  0  0  0
   -1.6160    2.7130   -5.1330 C   0  0  0  0  0  3  0  0  0  0  0  0
   -1.0280    1.8090   -5.9930 C   0  0  0  0  0  3  0  0  0  0  0  0
   -2.2940   -2.6350   -7.3930 O   0  0  0  0  0  0  0  0  0  0  0  0
   -2.5910   -3.2370   -8.1210 H   0  0  0  0  0  0  0  0  0  0  0  0
  1  2  1  0  0  0  0
  1  8  1  0  0  0  0
  3  2  2  0  0  0  0
  4  5  2  0  0  0  0
  4  3  1  0  0  0  0
  5  6  1  0  0  0  0
  6  1  2  0  0  0  0
  8  7  1  0  0  0  0
  9  4  1  0  0  0  0
  9 11  1  0  0  0  0
 10  9  2  0  0  0  0
 11 12  2  0  0  0  0
 11 16  1  0  0  0  0
 12 13  1  0  0  0  0
 13 14  2  0  0  0  0
 15 14  1  0  0  0  0
 16 15  2  0  0  0  0
 17  5  1  0  0  0  0
 18 17  1  0  0  0  0
M  END
>  <MODEL>
1

>  <REMARK>
 VINA RESULT:      -4.2      0.000      0.000
  Name = bgox31_2_ligand
  5 active torsions:
  status: ('A' for Active; 'I' for Inactive)
    1  A    between atoms: C_1  and  O_2
    2  A    between atoms: O_2  and  C_3
    3  A    between atoms: C_6  and  C_7
    4  A    between atoms: C_7  and  C_9
    5  A    between atoms: C_15  and  O_16
                            x       y       z     vdW  Elec       q    Type
                         _______ _______ _______ _____ _____    ______ ____

>  <TORSDO>
F 4

$$$$
bgox31_2_ligand
 OpenBabel10092621233D

 18 19  0  0  0  0  0  0  0  0999 V2000
    2.6070  -10.0280   -3.1150 C   0  0  0  0  0  0  0  0  0  0  0  0
    2.5740   -9.7530   -4.4850 C   0  0  0  0  0  3  0  0  0  0  0  0
    3.0220   -8.5460   -4.9580 C   0  0  0  0  0  3  0  0  0  0  0  0
    3.5030   -7.6330   -4.0610 C   0  0  0  0  0  0  0  0  0  0  0  0
    3.5830   -7.9130   -2.7070 C   0  0  0  0  0  0  0  0  0  0  0  0
    3.1400   -9.1170   -2.2510 C   0  0  0  0  0  3  0  0  0  0  0  0
    3.0360  -12.2590   -2.5580 C   0  0  0  0  0  1  0  0  0  0  0  0
    2.1220  -11.1980   -2.6820 O   0  0  0  0  0  0  0  0  0  0  0  0
    3.9580   -6.3050   -4.5950 C   0  0  0  0  0  0  0  0  0  0  0  0
    5.1370   -6.0880   -4.6320 O   0  0  0  0  0  0  0  0  0  0  0  0
    3.0430   -5.3570   -5.1630 C   0  0  0  0  0  0  0  0  0  0  0  0
    3.4410   -4.7210   -6.3160 C   0  0  0  0  0  3  0  0  0  0  0  0
    2.6170   -3.7580   -6.8530 C   0  0  0  0  0  3  0  0  0  0  0  0
    1.4230   -3.4780   -6.2340 C   0  0  0  0  0  3  0  0  0  0  0  0
    1.0560   -4.0750   -5.1250 C   0  0  0  0  0  3  0  0  0  0  0  0
    1.8750   -5.0460   -4.5890 C   0  0  0  0  0  3  0  0  0  0  0  0
    4.1280   -6.9950   -1.8950 O   0  0  0  0  0  0  0  0  0  0  0  0
    5.0890   -7.0440   -1.6660 H   0  0  0  0  0  0  0  0  0  0  0  0
  1  8  1  0  0  0  0
  1  6  1  0  0  0  0
  2  1  2  0  0  0  0
  3  2  1  0  0  0  0
  3  4  2  0  0  0  0
  4  5  1  0  0  0  0
  5  6  2  0  0  0  0
  5 17  1  0  0  0  0
  8  7  1  0  0  0  0
  9  4  1  0  0  0  0
 10  9  2  0  0  0  0
 11  9  1  0  0  0  0
 11 16  1  0  0  0  0
 12 11  2  0  0  0  0
 13 12  1  0  0  0  0
 13 14  2  0  0  0  0
 14 15  1  0  0  0  0
 15 16  2  0  0  0  0
 17 18  1  0  0  0  0
M  END
>  <MODEL>
2

>  <REMARK>
 VINA RESULT:      -4.0      5.395      8.149
  Name = bgox31_2_ligand
  5 active torsions:
  status: ('A' for Active; 'I' for Inactive)
    1  A    between atoms: C_1  and  O_2
    2  A    between atoms: O_2  and  C_3
    3  A    between atoms: C_6  and  C_7
    4  A    between atoms: C_7  and  C_9
    5  A    between atoms: C_15  and  O_16
                            x       y       z     vdW  Elec       q    Type
                         _______ _______ _______ _____ _____    ______ ____

>  <TORSDO>
F 4

$$$$
bgox31_2_ligand
 OpenBabel10092621233D

 18 19  0  0  0  0  0  0  0  0999 V2000
    1.2060   -2.7820   -6.3290 C   0  0  0  0  0  0  0  0  0  0  0  0
    0.8830   -3.3220   -5.0810 C   0  0  0  0  0  3  0  0  0  0  0  0
    1.3840   -4.5420   -4.7060 C   0  0  0  0  0  3  0  0  0  0  0  0
    2.2070   -5.2040   -5.5750 C   0  0  0  0  0  0  0  0  0  0  0  0
    2.5700   -4.6580   -6.7950 C   0  0  0  0  0  0  0  0  0  0  0  0
    2.0700   -3.4430   -7.1540 C   0  0  0  0  0  3  0  0  0  0  0  0
   -0.6530   -1.6390   -7.1720 C   0  0  0  0  0  1  0  0  0  0  0  0
    0.6660   -1.6100   -6.6830 O   0  0  0  0  0  0  0  0  0  0  0  0
    2.7180   -6.5540   -5.1600 C   0  0  0  0  0  0  0  0  0  0  0  0
    2.3160   -7.5140   -5.7550 O   0  0  0  0  0  0  0  0  0  0  0  0
    3.7450   -6.7090   -4.1700 C   0  0  0  0  0  0  0  0  0  0  0  0
    5.0330   -6.4180   -4.5590 C   0  0  0  0  0  3  0  0  0  0  0  0
    6.0520   -6.6180   -3.6560 C   0  0  0  0  0  3  0  0  0  0  0  0
    5.7500   -7.0820   -2.3980 C   0  0  0  0  0  3  0  0  0  0  0  0
    4.5230   -7.3740   -2.0390 C   0  0  0  0  0  3  0  0  0  0  0  0
    3.4980   -7.1670   -2.9380 C   0  0  0  0  0  3  0  0  0  0  0  0
    3.4330   -5.3350   -7.5680 O   0  0  0  0  0  0  0  0  0  0  0  0
    3.0950   -5.9300   -8.2830 H   0  0  0  0  0  0  0  0  0  0  0  0
  1  2  1  0  0  0  0
  2  3  2  0  0  0  0
  4  9  1  0  0  0  0
  4  3  1  0  0  0  0
  5  4  2  0  0  0  0
  6  5  1  0  0  0  0
  6  1  2  0  0  0  0
  7  8  1  0  0  0  0
  8  1  1  0  0  0  0
  9 11  1  0  0  0  0
 10  9  2  0  0  0  0
 11 16  1  0  0  0  0
 12 11  2  0  0  0  0
 12 13  1  0  0  0  0
 13 14  2  0  0  0  0
 14 15  1  0  0  0  0
 16 15  2  0  0  0  0
 17  5  1  0  0  0  0
 18 17  1  0  0  0  0
M  END
>  <MODEL>
3

>  <REMARK>
 VINA RESULT:      -3.9      2.935      8.028
  Name = bgox31_2_ligand
  5 active torsions:
  status: ('A' for Active; 'I' for Inactive)
    1  A    between atoms: C_1  and  O_2
    2  A    between atoms: O_2  and  C_3
    3  A    between atoms: C_6  and  C_7
    4  A    between atoms: C_7  and  C_9
    5  A    between atoms: C_15  and  O_16
                            x       y       z     vdW  Elec       q    Type
                         _______ _______ _______ _____ _____    ______ ____

>  <TORSDO>
F 4

$$$$
bgox31_2_ligand
 OpenBabel10092621233D

 18 19  0  0  0  0  0  0  0  0999 V2000
    1.9490   -3.9640   -6.2850 C   0  0  0  0  0  0  0  0  0  0  0  0
    1.4600   -4.4790   -5.0810 C   0  0  0  0  0  3  0  0  0  0  0  0
    2.1810   -5.4180   -4.3880 C   0  0  0  0  0  3  0  0  0  0  0  0
    3.3820   -5.8250   -4.9000 C   0  0  0  0  0  0  0  0  0  0  0  0
    3.8970   -5.2870   -6.0690 C   0  0  0  0  0  0  0  0  0  0  0  0
    3.1740   -4.3510   -6.7430 C   0  0  0  0  0  3  0  0  0  0  0  0
   -0.1750   -3.0610   -6.6680 C   0  0  0  0  0  1  0  0  0  0  0  0
    1.2010   -3.0810   -6.9580 O   0  0  0  0  0  0  0  0  0  0  0  0
    4.1400   -6.8780   -4.1450 C   0  0  0  0  0  0  0  0  0  0  0  0
    5.2450   -6.6090   -3.7620 O   0  0  0  0  0  0  0  0  0  0  0  0
    3.5440   -8.1280   -3.7720 C   0  0  0  0  0  0  0  0  0  0  0  0
    3.0000   -8.8850   -4.7850 C   0  0  0  0  0  3  0  0  0  0  0  0
    2.3620  -10.0590   -4.4570 C   0  0  0  0  0  3  0  0  0  0  0  0
    2.3030  -10.4440   -3.1400 C   0  0  0  0  0  3  0  0  0  0  0  0
    2.8070   -9.7100   -2.1760 C   0  0  0  0  0  3  0  0  0  0  0  0
    3.4560   -8.5370   -2.5020 C   0  0  0  0  0  3  0  0  0  0  0  0
    5.1110   -5.6860   -6.4760 O   0  0  0  0  0  0  0  0  0  0  0  0
    5.4950   -5.3270   -7.3140 H   0  0  0  0  0  0  0  0  0  0  0  0
  1  2  1  0  0  0  0
  2  3  2  0  0  0  0
  4  3  1  0  0  0  0
  4  9  1  0  0  0  0
  5  4  2  0  0  0  0
  6  1  2  0  0  0  0
  6  5  1  0  0  0  0
  8  7  1  0  0  0  0
  8  1  1  0  0  0  0
  9 11  1  0  0  0  0
  9 10  2  0  0  0  0
 11 16  1  0  0  0  0
 12 13  1  0  0  0  0
 12 11  2  0  0  0  0
 13 14  2  0  0  0  0
 14 15  1  0  0  0  0
 16 15  2  0  0  0  0
 17  5  1  0  0  0  0
 18 17  1  0  0  0  0
M  END
>  <MODEL>
4

>  <REMARK>
 VINA RESULT:      -3.8      3.776      8.879
  Name = bgox31_2_ligand
  5 active torsions:
  status: ('A' for Active; 'I' for Inactive)
    1  A    between atoms: C_1  and  O_2
    2  A    between atoms: O_2  and  C_3
    3  A    between atoms: C_6  and  C_7
    4  A    between atoms: C_7  and  C_9
    5  A    between atoms: C_15  and  O_16
                            x       y       z     vdW  Elec       q    Type
                         _______ _______ _______ _____ _____    ______ ____

>  <TORSDO>
F 4

$$$$
bgox31_2_ligand
 OpenBabel10092621233D

 18 19  0  0  0  0  0  0  0  0999 V2000
   -3.1960    2.4150   -5.0230 C   0  0  0  0  0  0  0  0  0  0  0  0
   -1.8060    2.4770   -4.8890 C   0  0  0  0  0  3  0  0  0  0  0  0
   -0.9990    1.7340   -5.7120 C   0  0  0  0  0  3  0  0  0  0  0  0
   -1.5880    0.9450   -6.6620 C   0  0  0  0  0  0  0  0  0  0  0  0
   -2.9620    0.9120   -6.8340 C   0  0  0  0  0  0  0  0  0  0  0  0
   -3.7510    1.6590   -6.0130 C   0  0  0  0  0  3  0  0  0  0  0  0
   -5.0910    3.7510   -4.7130 C   0  0  0  0  0  1  0  0  0  0  0  0
   -3.9560    3.1190   -4.1750 O   0  0  0  0  0  0  0  0  0  0  0  0
   -0.6890    0.1130   -7.5310 C   0  0  0  0  0  0  0  0  0  0  0  0
   -0.3070    0.5910   -8.5630 O   0  0  0  0  0  0  0  0  0  0  0  0
   -0.1890   -1.1630   -7.1100 C   0  0  0  0  0  0  0  0  0  0  0  0
   -0.9710   -2.2610   -7.3880 C   0  0  0  0  0  3  0  0  0  0  0  0
   -0.5550   -3.4950   -6.9420 C   0  0  0  0  0  3  0  0  0  0  0  0
    0.6300   -3.5920   -6.2530 C   0  0  0  0  0  3  0  0  0  0  0  0
    1.3630   -2.5400   -5.9750 C   0  0  0  0  0  3  0  0  0  0  0  0
    0.9530   -1.3040   -6.4280 C   0  0  0  0  0  3  0  0  0  0  0  0
   -3.4650    0.1660   -7.8290 O   0  0  0  0  0  0  0  0  0  0  0  0
   -3.3030   -0.8100   -7.8460 H   0  0  0  0  0  0  0  0  0  0  0  0
  1  2  1  0  0  0  0
  1  8  1  0  0  0  0
  3  2  2  0  0  0  0
  4  3  1  0  0  0  0
  5  4  2  0  0  0  0
  5  6  1  0  0  0  0
  6  1  2  0  0  0  0
  7  8  1  0  0  0  0
  9 11  1  0  0  0  0
  9  4  1  0  0  0  0
 10  9  2  0  0  0  0
 11 16  1  0  0  0  0
 12 11  2  0  0  0  0
 12 13  1  0  0  0  0
 13 14  2  0  0  0  0
 14 15  1  0  0  0  0
 16 15  2  0  0  0  0
 17  5  1  0  0  0  0
 18 17  1  0  0  0  0
M  END
>  <MODEL>
5

>  <REMARK>
 VINA RESULT:      -3.8      1.810      5.741
  Name = bgox31_2_ligand
  5 active torsions:
  status: ('A' for Active; 'I' for Inactive)
    1  A    between atoms: C_1  and  O_2
    2  A    between atoms: O_2  and  C_3
    3  A    between atoms: C_6  and  C_7
    4  A    between atoms: C_7  and  C_9
    5  A    between atoms: C_15  and  O_16
                            x       y       z     vdW  Elec       q    Type
                         _______ _______ _______ _____ _____    ______ ____

>  <TORSDO>
F 4

$$$$
bgox31_2_ligand
 OpenBabel10092621233D

 18 19  0  0  0  0  0  0  0  0999 V2000
    0.5150   -3.5300   -6.6910 C   0  0  0  0  0  0  0  0  0  0  0  0
    0.5190   -3.8440   -5.3300 C   0  0  0  0  0  3  0  0  0  0  0  0
    1.5470   -4.5770   -4.7930 C   0  0  0  0  0  3  0  0  0  0  0  0
    2.5610   -4.9800   -5.6190 C   0  0  0  0  0  0  0  0  0  0  0  0
    2.5890   -4.6340   -6.9600 C   0  0  0  0  0  0  0  0  0  0  0  0
    1.5650   -3.9020   -7.4790 C   0  0  0  0  0  3  0  0  0  0  0  0
   -1.5100   -3.5980   -7.8610 C   0  0  0  0  0  1  0  0  0  0  0  0
   -0.5240   -2.8510   -7.1920 O   0  0  0  0  0  0  0  0  0  0  0  0
    3.6590   -5.8100   -5.0200 C   0  0  0  0  0  0  0  0  0  0  0  0
    4.7650   -5.3460   -5.0000 O   0  0  0  0  0  0  0  0  0  0  0  0
    3.4020   -7.0640   -4.3750 C   0  0  0  0  0  0  0  0  0  0  0  0
    3.6620   -7.1360   -3.0250 C   0  0  0  0  0  3  0  0  0  0  0  0
    3.4890   -8.3420   -2.3860 C   0  0  0  0  0  3  0  0  0  0  0  0
    3.0490   -9.4250   -3.1080 C   0  0  0  0  0  3  0  0  0  0  0  0
    2.8200   -9.3560   -4.3970 C   0  0  0  0  0  3  0  0  0  0  0  0
    2.9840   -8.1470   -5.0400 C   0  0  0  0  0  3  0  0  0  0  0  0
    3.6470   -5.0090   -7.6950 O   0  0  0  0  0  0  0  0  0  0  0  0
    4.2080   -4.3250   -8.1390 H   0  0  0  0  0  0  0  0  0  0  0  0
  1  2  1  0  0  0  0
  2  3  2  0  0  0  0
  4  9  1  0  0  0  0
  4  3  1  0  0  0  0
  5  4  2  0  0  0  0
  6  5  1  0  0  0  0
  6  1  2  0  0  0  0
  7  8  1  0  0  0  0
  8  1  1  0  0  0  0
  9 10  2  0  0  0  0
  9 11  1  0  0  0  0
 11 12  1  0  0  0  0
 12 13  2  0  0  0  0
 14 13  1  0  0  0  0
 15 14  2  0  0  0  0
 16 15  1  0  0  0  0
 16 11  2  0  0  0  0
 17  5  1  0  0  0  0
 18 17  1  0  0  0  0
M  END
>  <MODEL>
6

>  <REMARK>
 VINA RESULT:      -3.8      3.919      8.119
  Name = bgox31_2_ligand
  5 active torsions:
  status: ('A' for Active; 'I' for Inactive)
    1  A    between atoms: C_1  and  O_2
    2  A    between atoms: O_2  and  C_3
    3  A    between atoms: C_6  and  C_7
    4  A    between atoms: C_7  and  C_9
    5  A    between atoms: C_15  and  O_16
                            x       y       z     vdW  Elec       q    Type
                         _______ _______ _______ _____ _____    ______ ____

>  <TORSDO>
F 4

$$$$
bgox31_2_ligand
 OpenBabel10092621233D

 18 19  0  0  0  0  0  0  0  0999 V2000
   -2.1020   -0.9860   -7.7110 C   0  0  0  0  0  0  0  0  0  0  0  0
   -0.9140   -0.3610   -7.3210 C   0  0  0  0  0  3  0  0  0  0  0  0
   -0.9510    0.7760   -6.5550 C   0  0  0  0  0  3  0  0  0  0  0  0
   -2.1700    1.2700   -6.1800 C   0  0  0  0  0  0  0  0  0  0  0  0
   -3.3520    0.6320   -6.5220 C   0  0  0  0  0  0  0  0  0  0  0  0
   -3.3010   -0.4980   -7.2790 C   0  0  0  0  0  3  0  0  0  0  0  0
   -1.1390   -3.0810   -8.1040 C   0  0  0  0  0  1  0  0  0  0  0  0
   -2.0330   -2.0680   -8.4950 O   0  0  0  0  0  0  0  0  0  0  0  0
   -2.1900    2.5340   -5.3700 C   0  0  0  0  0  0  0  0  0  0  0  0
   -2.4890    2.4520   -4.2110 O   0  0  0  0  0  0  0  0  0  0  0  0
   -1.7530    3.7900   -5.9050 C   0  0  0  0  0  0  0  0  0  0  0  0
   -2.6460    4.4720   -6.7000 C   0  0  0  0  0  3  0  0  0  0  0  0
   -2.2380    5.6510   -7.2840 C   0  0  0  0  0  3  0  0  0  0  0  0
   -0.9670    6.1120   -7.0420 C   0  0  0  0  0  3  0  0  0  0  0  0
   -0.1140    5.4490   -6.2980 C   0  0  0  0  0  3  0  0  0  0  0  0
   -0.5220    4.2730   -5.7040 C   0  0  0  0  0  3  0  0  0  0  0  0
   -4.5070    1.1380   -6.0640 O   0  0  0  0  0  0  0  0  0  0  0  0
   -4.5160    1.6820   -5.2370 H   0  0  0  0  0  0  0  0  0  0  0  0
  1  2  2  0  0  0  0
  1  6  1  0  0  0  0
  2  3  1  0  0  0  0
  3  4  2  0  0  0  0
  4  9  1  0  0  0  0
  5  4  1  0  0  0  0
  5 17  1  0  0  0  0
  6  5  2  0  0  0  0
  8  7  1  0  0  0  0
  8  1  1  0  0  0  0
  9 10  2  0  0  0  0
 11 16  1  0  0  0  0
 11  9  1  0  0  0  0
 12 11  2  0  0  0  0
 13 14  2  0  0  0  0
 13 12  1  0  0  0  0
 14 15  1  0  0  0  0
 15 16  2  0  0  0  0
 17 18  1  0  0  0  0
M  END
>  <MODEL>
7

>  <REMARK>
 VINA RESULT:      -3.7      2.498      4.025
  Name = bgox31_2_ligand
  5 active torsions:
  status: ('A' for Active; 'I' for Inactive)
    1  A    between atoms: C_1  and  O_2
    2  A    between atoms: O_2  and  C_3
    3  A    between atoms: C_6  and  C_7
    4  A    between atoms: C_7  and  C_9
    5  A    between atoms: C_15  and  O_16
                            x       y       z     vdW  Elec       q    Type
                         _______ _______ _______ _____ _____    ______ ____

>  <TORSDO>
F 4

$$$$
bgox31_2_ligand
 OpenBabel10092621233D

 18 19  0  0  0  0  0  0  0  0999 V2000
    3.2210   -7.7880   -4.3890 C   0  0  0  0  0  0  0  0  0  0  0  0
    3.1520   -6.5080   -3.8320 C   0  0  0  0  0  3  0  0  0  0  0  0
    2.3770   -5.5400   -4.4190 C   0  0  0  0  0  3  0  0  0  0  0  0
    1.6760   -5.8630   -5.5490 C   0  0  0  0  0  0  0  0  0  0  0  0
    1.7020   -7.1420   -6.0820 C   0  0  0  0  0  0  0  0  0  0  0  0
    2.4700   -8.0940   -5.4870 C   0  0  0  0  0  3  0  0  0  0  0  0
    3.7800   -8.9920   -2.4630 C   0  0  0  0  0  1  0  0  0  0  0  0
    4.0200   -8.6960   -3.8170 O   0  0  0  0  0  0  0  0  0  0  0  0
    0.8610   -4.7810   -6.1960 C   0  0  0  0  0  0  0  0  0  0  0  0
   -0.3160   -4.9720   -6.3350 O   0  0  0  0  0  0  0  0  0  0  0  0
    1.4190   -3.5040   -6.5330 C   0  0  0  0  0  0  0  0  0  0  0  0
    2.4840   -3.5010   -7.4050 C   0  0  0  0  0  3  0  0  0  0  0  0
    3.0870   -2.2990   -7.7010 C   0  0  0  0  0  3  0  0  0  0  0  0
    2.5970   -1.1480   -7.1330 C   0  0  0  0  0  3  0  0  0  0  0  0
    1.5940   -1.1580   -6.2890 C   0  0  0  0  0  3  0  0  0  0  0  0
    0.9810   -2.3590   -5.9970 C   0  0  0  0  0  3  0  0  0  0  0  0
    0.9370   -7.4030   -7.1530 O   0  0  0  0  0  0  0  0  0  0  0  0
    1.3140   -7.3140   -8.0640 H   0  0  0  0  0  0  0  0  0  0  0  0
  1  2  1  0  0  0  0
  1  8  1  0  0  0  0
  3  2  2  0  0  0  0
  4  3  1  0  0  0  0
  5  4  2  0  0  0  0
  5  6  1  0  0  0  0
  6  1  2  0  0  0  0
  8  7  1  0  0  0  0
  9  4  1  0  0  0  0
 10  9  2  0  0  0  0
 11  9  1  0  0  0  0
 11 16  1  0  0  0  0
 12 11  2  0  0  0  0
 13 12  1  0  0  0  0
 13 14  2  0  0  0  0
 14 15  1  0  0  0  0
 15 16  2  0  0  0  0
 17  5  1  0  0  0  0
 18 17  1  0  0  0  0
M  END
>  <MODEL>
8

>  <REMARK>
 VINA RESULT:      -3.7      3.662      5.726
  Name = bgox31_2_ligand
  5 active torsions:
  status: ('A' for Active; 'I' for Inactive)
    1  A    between atoms: C_1  and  O_2
    2  A    between atoms: O_2  and  C_3
    3  A    between atoms: C_6  and  C_7
    4  A    between atoms: C_7  and  C_9
    5  A    between atoms: C_15  and  O_16
                            x       y       z     vdW  Elec       q    Type
                         _______ _______ _______ _____ _____    ______ ____

>  <TORSDO>
F 4

$$$$
bgox31_2_ligand
 OpenBabel10092621233D

 18 19  0  0  0  0  0  0  0  0999 V2000
    8.4350    3.3890   -2.8620 C   0  0  0  0  0  0  0  0  0  0  0  0
    9.4130    2.4530   -2.5120 C   0  0  0  0  0  3  0  0  0  0  0  0
    9.1050    1.1180   -2.4640 C   0  0  0  0  0  3  0  0  0  0  0  0
    7.8300    0.7310   -2.7730 C   0  0  0  0  0  0  0  0  0  0  0  0
    6.8660    1.6450   -3.1650 C   0  0  0  0  0  0  0  0  0  0  0  0
    7.1860    2.9680   -3.2140 C   0  0  0  0  0  3  0  0  0  0  0  0
    9.1290    5.2460   -1.6210 C   0  0  0  0  0  1  0  0  0  0  0  0
    8.7560    4.6880   -2.8570 O   0  0  0  0  0  0  0  0  0  0  0  0
    7.5040   -0.7320   -2.6820 C   0  0  0  0  0  0  0  0  0  0  0  0
    7.3750   -1.3430   -3.7060 O   0  0  0  0  0  0  0  0  0  0  0  0
    7.4640   -1.4280   -1.4280 C   0  0  0  0  0  0  0  0  0  0  0  0
    8.1740   -2.6040   -1.3470 C   0  0  0  0  0  3  0  0  0  0  0  0
    8.1060   -3.3330   -0.1810 C   0  0  0  0  0  3  0  0  0  0  0  0
    7.3510   -2.8560    0.8630 C   0  0  0  0  0  3  0  0  0  0  0  0
    6.6620   -1.7430    0.7740 C   0  0  0  0  0  3  0  0  0  0  0  0
    6.7340   -1.0060   -0.3900 C   0  0  0  0  0  3  0  0  0  0  0  0
    5.6550    1.1870   -3.5170 O   0  0  0  0  0  0  0  0  0  0  0  0
    4.8920    1.2760   -2.8930 H   0  0  0  0  0  0  0  0  0  0  0  0
  1  8  1  0  0  0  0
  1  2  1  0  0  0  0
  2  3  2  0  0  0  0
  4  9  1  0  0  0  0
  4  3  1  0  0  0  0
  5  4  2  0  0  0  0
  6  5  1  0  0  0  0
  6  1  2  0  0  0  0
  8  7  1  0  0  0  0
  9 11  1  0  0  0  0
 10  9  2  0  0  0  0
 11 12  2  0  0  0  0
 11 16  1  0  0  0  0
 12 13  1  0  0  0  0
 13 14  2  0  0  0  0
 15 14  1  0  0  0  0
 16 15  2  0  0  0  0
 17  5  1  0  0  0  0
 17 18  1  0  0  0  0
M  END
>  <MODEL>
9

>  <REMARK>
 VINA RESULT:      -3.7      8.891     11.024
  Name = bgox31_2_ligand
  5 active torsions:
  status: ('A' for Active; 'I' for Inactive)
    1  A    between atoms: C_1  and  O_2
    2  A    between atoms: O_2  and  C_3
    3  A    between atoms: C_6  and  C_7
    4  A    between atoms: C_7  and  C_9
    5  A    between atoms: C_15  and  O_16
                            x       y       z     vdW  Elec       q    Type
                         _______ _______ _______ _____ _____    ______ ____

>  <TORSDO>
F 4

$$$$
