ox3_orig_f8_ligand
     RDKit          3D

 29 30  0  0  0  0  0  0  0  0999 V2000
    1.1727   -7.4716   13.0219 C   0  0  0  0  0  0  0  0  0  0  0  0
    2.2016   -7.4099   12.0340 O   0  0  0  0  0  0  0  0  0  0  0  0
    2.2327   -6.3740   11.1324 C   0  0  0  0  0  0  0  0  0  0  0  0
    1.2266   -5.4081   11.0686 C   0  0  0  0  0  0  0  0  0  0  0  0
    1.3060   -4.3849   10.1373 C   0  0  0  0  0  0  0  0  0  0  0  0
    2.3825   -4.3132    9.2584 C   0  0  0  0  0  0  0  0  0  0  0  0
    2.4867   -3.2039    8.2503 C   0  0  0  0  0  0  0  0  0  0  0  0
    3.4923   -3.1293    7.5848 O   0  0  0  0  0  0  0  0  0  0  0  0
    1.4229   -2.1849    8.0719 C   0  0  0  0  0  0  0  0  0  0  0  0
    0.0914   -2.5458    7.9196 C   0  0  0  0  0  0  0  0  0  0  0  0
   -0.8725   -1.5749    7.7192 C   0  0  0  0  0  0  0  0  0  0  0  0
   -0.5388   -0.2350    7.7182 C   0  0  0  0  0  0  0  0  0  0  0  0
    0.7886    0.1343    7.8538 C   0  0  0  0  0  0  0  0  0  0  0  0
    1.7778   -0.8375    8.0101 C   0  0  0  0  0  0  0  0  0  0  0  0
    3.3869   -5.2774    9.3379 C   0  0  0  0  0  0  0  0  0  0  0  0
    4.4574   -5.2013    8.4975 O   0  0  0  0  0  0  0  0  0  0  0  0
    3.3016   -6.2986   10.2763 C   0  0  0  0  0  0  0  0  0  0  0  0
    1.1362   -6.5204   13.5731 H   0  0  0  0  0  0  0  0  0  0  0  0
    0.2039   -7.6489   12.5317 H   0  0  0  0  0  0  0  0  0  0  0  0
    1.3852   -8.2931   13.7218 H   0  0  0  0  0  0  0  0  0  0  0  0
    0.3706   -5.4594   11.7575 H   0  0  0  0  0  0  0  0  0  0  0  0
    0.5126   -3.6242   10.0925 H   0  0  0  0  0  0  0  0  0  0  0  0
   -0.1978   -3.6064    7.9584 H   0  0  0  0  0  0  0  0  0  0  0  0
   -1.9187   -1.8738    7.5584 H   0  0  0  0  0  0  0  0  0  0  0  0
   -1.3203    0.5317    7.6106 H   0  0  0  0  0  0  0  0  0  0  0  0
    1.0649    1.1989    7.8382 H   0  0  0  0  0  0  0  0  0  0  0  0
    2.8347   -0.5416    8.0847 H   0  0  0  0  0  0  0  0  0  0  0  0
    5.1749   -5.8816    8.5471 H   0  0  0  0  0  0  0  0  0  0  0  0
    4.0992   -7.0539   10.3332 H   0  0  0  0  0  0  0  0  0  0  0  0
  2  1  1  0
  3  2  1  0
  4  3  1  0
  5  4  2  0
  6  5  1  0
  7  6  1  0
  8  7  2  0
  9  7  1  0
 10  9  2  0
 11 10  1  0
 12 11  2  0
 13 12  1  0
 14 13  2  0
 14  9  1  0
 15  6  2  0
 16 15  1  0
 17 15  1  0
 17  3  2  0
  1 18  1  0
  1 19  1  0
  1 20  1  0
  4 21  1  0
  5 22  1  0
 10 23  1  0
 11 24  1  0
 12 25  1  0
 13 26  1  0
 14 27  1  0
 16 28  1  0
 17 29  1  0
M  END
$$$$
