ox3_orig_f8_ligand
 OpenBabel10092621233D

 18 19  0  0  0  0  0  0  0  0999 V2000
    8.8520    2.2980    4.9780 C   0  0  0  0  0  0  0  0  0  0  0  0
    9.3760    1.0110    5.1110 C   0  0  0  0  0  3  0  0  0  0  0  0
    8.6260   -0.0870    4.7210 C   0  0  0  0  0  3  0  0  0  0  0  0
    7.3500    0.0820    4.1920 C   0  0  0  0  0  0  0  0  0  0  0  0
    6.8320    1.3720    4.0740 C   0  0  0  0  0  0  0  0  0  0  0  0
    7.5890    2.4680    4.4690 C   0  0  0  0  0  3  0  0  0  0  0  0
    9.0560    4.7180    5.0210 C   0  0  0  0  0  1  0  0  0  0  0  0
    9.5540    3.4200    5.3470 O   0  0  0  0  0  0  0  0  0  0  0  0
    6.5210   -1.0990    3.7740 C   0  0  0  0  0  0  0  0  0  0  0  0
    6.2180   -1.2020    2.6100 O   0  0  0  0  0  0  0  0  0  0  0  0
    6.0340   -2.1130    4.7420 C   0  0  0  0  0  0  0  0  0  0  0  0
    6.9040   -2.7780    5.5960 C   0  0  0  0  0  3  0  0  0  0  0  0
    6.4240   -3.7440    6.4610 C   0  0  0  0  0  3  0  0  0  0  0  0
    5.0750   -4.0280    6.5290 C   0  0  0  0  0  3  0  0  0  0  0  0
    4.2010   -3.3800    5.6700 C   0  0  0  0  0  3  0  0  0  0  0  0
    4.6780   -2.4370    4.7590 C   0  0  0  0  0  3  0  0  0  0  0  0
    5.5740    1.5460    3.5800 O   0  0  0  0  0  0  0  0  0  0  0  0
    5.1070    0.7940    3.1360 H   0  0  0  0  0  0  0  0  0  0  0  0
  1  2  1  0  0  0  0
  1  8  1  0  0  0  0
  3  2  2  0  0  0  0
  4  3  1  0  0  0  0
  5  4  2  0  0  0  0
  5  6  1  0  0  0  0
  6  1  2  0  0  0  0
  7  8  1  0  0  0  0
  9  4  1  0  0  0  0
  9 11  1  0  0  0  0
 10  9  2  0  0  0  0
 11 16  2  0  0  0  0
 11 12  1  0  0  0  0
 12 13  2  0  0  0  0
 13 14  1  0  0  0  0
 15 14  2  0  0  0  0
 16 15  1  0  0  0  0
 17  5  1  0  0  0  0
 18 17  1  0  0  0  0
M  END
>  <MODEL>
1

>  <REMARK>
 VINA RESULT:      -4.5      0.000      0.000
  Name = ox3_orig_f8_ligand
  5 active torsions:
  status: ('A' for Active; 'I' for Inactive)
    1  A    between atoms: C_1  and  O_2
    2  A    between atoms: O_2  and  C_3
    3  A    between atoms: C_6  and  C_7
    4  A    between atoms: C_7  and  C_9
    5  A    between atoms: C_15  and  O_16
                            x       y       z     vdW  Elec       q    Type
                         _______ _______ _______ _____ _____    ______ ____

>  <TORSDO>
F 4

$$$$
ox3_orig_f8_ligand
 OpenBabel10092621233D

 18 19  0  0  0  0  0  0  0  0999 V2000
    6.6380   -1.4430    3.7210 C   0  0  0  0  0  0  0  0  0  0  0  0
    7.7980   -1.3600    4.4940 C   0  0  0  0  0  3  0  0  0  0  0  0
    8.2730   -0.1220    4.9000 C   0  0  0  0  0  3  0  0  0  0  0  0
    7.6000    1.0420    4.5450 C   0  0  0  0  0  0  0  0  0  0  0  0
    6.4490    0.9480    3.7630 C   0  0  0  0  0  0  0  0  0  0  0  0
    5.9800   -0.2960    3.3580 C   0  0  0  0  0  3  0  0  0  0  0  0
    5.0440   -2.6720    2.3620 C   0  0  0  0  0  1  0  0  0  0  0  0
    6.1240   -2.6440    3.2950 O   0  0  0  0  0  0  0  0  0  0  0  0
    8.1080    2.3910    4.9680 C   0  0  0  0  0  0  0  0  0  0  0  0
    7.5730    2.9360    5.9030 O   0  0  0  0  0  0  0  0  0  0  0  0
    9.2110    3.0860    4.2590 C   0  0  0  0  0  0  0  0  0  0  0  0
   10.5420    2.8420    4.5700 C   0  0  0  0  0  3  0  0  0  0  0  0
   11.5460    3.5330    3.9170 C   0  0  0  0  0  3  0  0  0  0  0  0
   11.2490    4.4330    2.9130 C   0  0  0  0  0  3  0  0  0  0  0  0
    9.9240    4.6950    2.6060 C   0  0  0  0  0  3  0  0  0  0  0  0
    8.8990    4.0400    3.2900 C   0  0  0  0  0  3  0  0  0  0  0  0
    5.7970    2.0840    3.3890 O   0  0  0  0  0  0  0  0  0  0  0  0
    6.2970    2.9340    3.2960 H   0  0  0  0  0  0  0  0  0  0  0  0
  1  2  1  0  0  0  0
  2  3  2  0  0  0  0
  4  3  1  0  0  0  0
  4  9  1  0  0  0  0
  5  4  2  0  0  0  0
  6  1  2  0  0  0  0
  6  5  1  0  0  0  0
  7  8  1  0  0  0  0
  8  1  1  0  0  0  0
  9 10  2  0  0  0  0
 11 12  1  0  0  0  0
 11  9  1  0  0  0  0
 13 12  2  0  0  0  0
 14 13  1  0  0  0  0
 15 14  2  0  0  0  0
 15 16  1  0  0  0  0
 16 11  2  0  0  0  0
 17  5  1  0  0  0  0
 18 17  1  0  0  0  0
M  END
>  <MODEL>
2

>  <REMARK>
 VINA RESULT:      -4.5      2.008      6.324
  Name = ox3_orig_f8_ligand
  5 active torsions:
  status: ('A' for Active; 'I' for Inactive)
    1  A    between atoms: C_1  and  O_2
    2  A    between atoms: O_2  and  C_3
    3  A    between atoms: C_6  and  C_7
    4  A    between atoms: C_7  and  C_9
    5  A    between atoms: C_15  and  O_16
                            x       y       z     vdW  Elec       q    Type
                         _______ _______ _______ _____ _____    ______ ____

>  <TORSDO>
F 4

$$$$
ox3_orig_f8_ligand
 OpenBabel10092621233D

 18 19  0  0  0  0  0  0  0  0999 V2000
    7.7550    2.0900    4.8590 C   0  0  0  0  0  0  0  0  0  0  0  0
    8.5370    1.2040    5.6020 C   0  0  0  0  0  3  0  0  0  0  0  0
    8.3810   -0.1630    5.4370 C   0  0  0  0  0  3  0  0  0  0  0  0
    7.4490   -0.6630    4.5330 C   0  0  0  0  0  0  0  0  0  0  0  0
    6.6650    0.2320    3.8050 C   0  0  0  0  0  0  0  0  0  0  0  0
    6.8260    1.6010    3.9760 C   0  0  0  0  0  3  0  0  0  0  0  0
    8.8490    4.1620    4.2180 C   0  0  0  0  0  1  0  0  0  0  0  0
    7.8720    3.4540    4.9810 O   0  0  0  0  0  0  0  0  0  0  0  0
    7.2600   -2.1430    4.3520 C   0  0  0  0  0  0  0  0  0  0  0  0
    7.5790   -2.6350    3.2960 O   0  0  0  0  0  0  0  0  0  0  0  0
    6.6670   -3.0050    5.4030 C   0  0  0  0  0  0  0  0  0  0  0  0
    7.4600   -3.6860    6.3170 C   0  0  0  0  0  3  0  0  0  0  0  0
    6.8790   -4.5110    7.2620 C   0  0  0  0  0  3  0  0  0  0  0  0
    5.5060   -4.6330    7.3480 C   0  0  0  0  0  3  0  0  0  0  0  0
    4.7070   -3.9690    6.4320 C   0  0  0  0  0  3  0  0  0  0  0  0
    5.2830   -3.1700    5.4430 C   0  0  0  0  0  3  0  0  0  0  0  0
    5.7330   -0.2480    2.9350 O   0  0  0  0  0  0  0  0  0  0  0  0
    5.4060   -1.1800    3.0220 H   0  0  0  0  0  0  0  0  0  0  0  0
  1  8  1  0  0  0  0
  1  2  1  0  0  0  0
  3  2  2  0  0  0  0
  4  3  1  0  0  0  0
  5  6  1  0  0  0  0
  5  4  2  0  0  0  0
  6  1  2  0  0  0  0
  7  8  1  0  0  0  0
  9  4  1  0  0  0  0
  9 11  1  0  0  0  0
 10  9  2  0  0  0  0
 11 16  2  0  0  0  0
 11 12  1  0  0  0  0
 12 13  2  0  0  0  0
 13 14  1  0  0  0  0
 15 14  2  0  0  0  0
 16 15  1  0  0  0  0
 17 18  1  0  0  0  0
 17  5  1  0  0  0  0
M  END
>  <MODEL>
3

>  <REMARK>
 VINA RESULT:      -4.5      1.083      1.305
  Name = ox3_orig_f8_ligand
  5 active torsions:
  status: ('A' for Active; 'I' for Inactive)
    1  A    between atoms: C_1  and  O_2
    2  A    between atoms: O_2  and  C_3
    3  A    between atoms: C_6  and  C_7
    4  A    between atoms: C_7  and  C_9
    5  A    between atoms: C_15  and  O_16
                            x       y       z     vdW  Elec       q    Type
                         _______ _______ _______ _____ _____    ______ ____

>  <TORSDO>
F 4

$$$$
ox3_orig_f8_ligand
 OpenBabel10092621233D

 18 19  0  0  0  0  0  0  0  0999 V2000
    5.6260    1.3550    2.7720 C   0  0  0  0  0  0  0  0  0  0  0  0
    5.4180    0.0400    2.3550 C   0  0  0  0  0  3  0  0  0  0  0  0
    6.1120   -0.9970    2.9590 C   0  0  0  0  0  3  0  0  0  0  0  0
    7.0160   -0.7380    3.9840 C   0  0  0  0  0  0  0  0  0  0  0  0
    7.2240    0.5820    4.3850 C   0  0  0  0  0  0  0  0  0  0  0  0
    6.5260    1.6170    3.7730 C   0  0  0  0  0  3  0  0  0  0  0  0
    3.6060    2.2770    1.7860 C   0  0  0  0  0  1  0  0  0  0  0  0
    4.9630    2.4190    2.2100 O   0  0  0  0  0  0  0  0  0  0  0  0
    7.7840   -1.8500    4.6410 C   0  0  0  0  0  0  0  0  0  0  0  0
    8.9610   -1.9540    4.3950 O   0  0  0  0  0  0  0  0  0  0  0  0
    7.1420   -2.8370    5.5430 C   0  0  0  0  0  0  0  0  0  0  0  0
    5.7650   -3.0160    5.5600 C   0  0  0  0  0  3  0  0  0  0  0  0
    5.1930   -3.9180    6.4390 C   0  0  0  0  0  3  0  0  0  0  0  0
    5.9780   -4.6890    7.2730 C   0  0  0  0  0  3  0  0  0  0  0  0
    7.3510   -4.5070    7.2740 C   0  0  0  0  0  3  0  0  0  0  0  0
    7.9370   -3.5670    6.4260 C   0  0  0  0  0  3  0  0  0  0  0  0
    8.1260    0.8490    5.3710 O   0  0  0  0  0  0  0  0  0  0  0  0
    7.8560    0.7780    6.3220 H   0  0  0  0  0  0  0  0  0  0  0  0
  1  6  1  0  0  0  0
  2  1  2  0  0  0  0
  2  3  1  0  0  0  0
  3  4  2  0  0  0  0
  4  5  1  0  0  0  0
  4  9  1  0  0  0  0
  5 17  1  0  0  0  0
  6  5  2  0  0  0  0
  7  8  1  0  0  0  0
  8  1  1  0  0  0  0
  9 11  1  0  0  0  0
 10  9  2  0  0  0  0
 11 12  2  0  0  0  0
 11 16  1  0  0  0  0
 12 13  1  0  0  0  0
 13 14  2  0  0  0  0
 14 15  1  0  0  0  0
 16 15  2  0  0  0  0
 17 18  1  0  0  0  0
M  END
>  <MODEL>
4

>  <REMARK>
 VINA RESULT:      -4.5      1.953      3.366
  Name = ox3_orig_f8_ligand
  5 active torsions:
  status: ('A' for Active; 'I' for Inactive)
    1  A    between atoms: C_1  and  O_2
    2  A    between atoms: O_2  and  C_3
    3  A    between atoms: C_6  and  C_7
    4  A    between atoms: C_7  and  C_9
    5  A    between atoms: C_15  and  O_16
                            x       y       z     vdW  Elec       q    Type
                         _______ _______ _______ _____ _____    ______ ____

>  <TORSDO>
F 4

$$$$
ox3_orig_f8_ligand
 OpenBabel10092621233D

 18 19  0  0  0  0  0  0  0  0999 V2000
    5.7520   -0.3540    3.4230 C   0  0  0  0  0  0  0  0  0  0  0  0
    6.5950   -1.0740    4.2710 C   0  0  0  0  0  3  0  0  0  0  0  0
    7.6240   -0.4280    4.9390 C   0  0  0  0  0  3  0  0  0  0  0  0
    7.8230    0.9390    4.7720 C   0  0  0  0  0  0  0  0  0  0  0  0
    6.9820    1.6460    3.9130 C   0  0  0  0  0  0  0  0  0  0  0  0
    5.9540    0.9910    3.2450 C   0  0  0  0  0  3  0  0  0  0  0  0
    4.3810   -0.5070    1.4230 C   0  0  0  0  0  1  0  0  0  0  0  0
    4.7170   -0.9450    2.7400 O   0  0  0  0  0  0  0  0  0  0  0  0
    8.9400    1.6520    5.4800 C   0  0  0  0  0  0  0  0  0  0  0  0
    9.8980    2.0000    4.8320 O   0  0  0  0  0  0  0  0  0  0  0  0
    8.9240    1.9060    6.9420 C   0  0  0  0  0  0  0  0  0  0  0  0
    9.9450    1.4570    7.7680 C   0  0  0  0  0  3  0  0  0  0  0  0
    9.8830    1.6780    9.1320 C   0  0  0  0  0  3  0  0  0  0  0  0
    8.8380    2.3900    9.6870 C   0  0  0  0  0  3  0  0  0  0  0  0
    7.8070    2.8280    8.8730 C   0  0  0  0  0  3  0  0  0  0  0  0
    7.8340    2.5710    7.5020 C   0  0  0  0  0  3  0  0  0  0  0  0
    7.1850    2.9800    3.7240 O   0  0  0  0  0  0  0  0  0  0  0  0
    6.5860    3.4930    3.1240 H   0  0  0  0  0  0  0  0  0  0  0  0
  1  2  1  0  0  0  0
  2  3  2  0  0  0  0
  4  3  1  0  0  0  0
  4  9  1  0  0  0  0
  5  4  2  0  0  0  0
  6  1  2  0  0  0  0
  6  5  1  0  0  0  0
  7  8  1  0  0  0  0
  8  1  1  0  0  0  0
  9 11  1  0  0  0  0
 10  9  2  0  0  0  0
 11 16  2  0  0  0  0
 11 12  1  0  0  0  0
 12 13  2  0  0  0  0
 13 14  1  0  0  0  0
 15 14  2  0  0  0  0
 16 15  1  0  0  0  0
 17  5  1  0  0  0  0
 18 17  1  0  0  0  0
M  END
>  <MODEL>
5

>  <REMARK>
 VINA RESULT:      -4.4      2.433      5.321
  Name = ox3_orig_f8_ligand
  5 active torsions:
  status: ('A' for Active; 'I' for Inactive)
    1  A    between atoms: C_1  and  O_2
    2  A    between atoms: O_2  and  C_3
    3  A    between atoms: C_6  and  C_7
    4  A    between atoms: C_7  and  C_9
    5  A    between atoms: C_15  and  O_16
                            x       y       z     vdW  Elec       q    Type
                         _______ _______ _______ _____ _____    ______ ____

>  <TORSDO>
F 4

$$$$
ox3_orig_f8_ligand
 OpenBabel10092621233D

 18 19  0  0  0  0  0  0  0  0999 V2000
    4.6440    0.8450    0.7720 C   0  0  0  0  0  0  0  0  0  0  0  0
    5.0210   -0.4980    0.7330 C   0  0  0  0  0  3  0  0  0  0  0  0
    5.7390   -1.0470    1.7830 C   0  0  0  0  0  3  0  0  0  0  0  0
    6.0880   -0.2680    2.8820 C   0  0  0  0  0  0  0  0  0  0  0  0
    5.7160    1.0760    2.9050 C   0  0  0  0  0  0  0  0  0  0  0  0
    4.9970    1.6200    1.8470 C   0  0  0  0  0  3  0  0  0  0  0  0
    4.5950    1.9020   -1.4150 C   0  0  0  0  0  1  0  0  0  0  0  0
    3.9280    1.4380   -0.2410 O   0  0  0  0  0  0  0  0  0  0  0  0
    6.8760   -0.8460    4.0230 C   0  0  0  0  0  0  0  0  0  0  0  0
    7.9740   -0.3950    4.2460 O   0  0  0  0  0  0  0  0  0  0  0  0
    6.3720   -1.9670    4.8540 C   0  0  0  0  0  0  0  0  0  0  0  0
    5.0260   -2.3070    4.8740 C   0  0  0  0  0  3  0  0  0  0  0  0
    4.5800   -3.3330    5.6870 C   0  0  0  0  0  3  0  0  0  0  0  0
    5.4660   -4.0680    6.4490 C   0  0  0  0  0  3  0  0  0  0  0  0
    6.8090   -3.7260    6.4480 C   0  0  0  0  0  3  0  0  0  0  0  0
    7.2650   -2.6620    5.6690 C   0  0  0  0  0  3  0  0  0  0  0  0
    6.0740    1.8530    3.9650 O   0  0  0  0  0  0  0  0  0  0  0  0
    6.7810    2.5390    3.8600 H   0  0  0  0  0  0  0  0  0  0  0  0
  1  6  1  0  0  0  0
  2  1  2  0  0  0  0
  2  3  1  0  0  0  0
  3  4  2  0  0  0  0
  4  5  1  0  0  0  0
  4  9  1  0  0  0  0
  5 17  1  0  0  0  0
  6  5  2  0  0  0  0
  7  8  1  0  0  0  0
  8  1  1  0  0  0  0
  9 10  2  0  0  0  0
  9 11  1  0  0  0  0
 11 12  2  0  0  0  0
 11 16  1  0  0  0  0
 12 13  1  0  0  0  0
 13 14  2  0  0  0  0
 15 14  1  0  0  0  0
 16 15  2  0  0  0  0
 18 17  1  0  0  0  0
M  END
>  <MODEL>
6

>  <REMARK>
 VINA RESULT:      -4.4      2.497      4.082
  Name = ox3_orig_f8_ligand
  5 active torsions:
  status: ('A' for Active; 'I' for Inactive)
    1  A    between atoms: C_1  and  O_2
    2  A    between atoms: O_2  and  C_3
    3  A    between atoms: C_6  and  C_7
    4  A    between atoms: C_7  and  C_9
    5  A    between atoms: C_15  and  O_16
                            x       y       z     vdW  Elec       q    Type
                         _______ _______ _______ _____ _____    ______ ____

>  <TORSDO>
F 4

$$$$
ox3_orig_f8_ligand
 OpenBabel10092621233D

 18 19  0  0  0  0  0  0  0  0999 V2000
    7.5580    1.7390    4.5740 C   0  0  0  0  0  0  0  0  0  0  0  0
    6.6060    0.9950    3.8750 C   0  0  0  0  0  3  0  0  0  0  0  0
    6.6310   -0.3890    3.9300 C   0  0  0  0  0  3  0  0  0  0  0  0
    7.6000   -1.0480    4.6800 C   0  0  0  0  0  0  0  0  0  0  0  0
    8.5540   -0.2950    5.3640 C   0  0  0  0  0  0  0  0  0  0  0  0
    8.5240    1.0930    5.3040 C   0  0  0  0  0  3  0  0  0  0  0  0
    8.6820    3.8100    3.9830 C   0  0  0  0  0  1  0  0  0  0  0  0
    7.5760    3.1130    4.5570 O   0  0  0  0  0  0  0  0  0  0  0  0
    7.6480   -2.5490    4.7390 C   0  0  0  0  0  0  0  0  0  0  0  0
    8.3870   -3.1280    3.9810 O   0  0  0  0  0  0  0  0  0  0  0  0
    6.7960   -3.3370    5.6640 C   0  0  0  0  0  0  0  0  0  0  0  0
    5.4120   -3.3330    5.5570 C   0  0  0  0  0  3  0  0  0  0  0  0
    4.6440   -4.0480    6.4580 C   0  0  0  0  0  3  0  0  0  0  0  0
    5.2360   -4.8170    7.4400 C   0  0  0  0  0  3  0  0  0  0  0  0
    6.6160   -4.8160    7.5640 C   0  0  0  0  0  3  0  0  0  0  0  0
    7.4010   -4.0600    6.6920 C   0  0  0  0  0  3  0  0  0  0  0  0
    9.5220   -0.9310    6.0810 O   0  0  0  0  0  0  0  0  0  0  0  0
   10.4180   -1.0790    5.6830 H   0  0  0  0  0  0  0  0  0  0  0  0
  1  6  1  0  0  0  0
  2  3  1  0  0  0  0
  2  1  2  0  0  0  0
  3  4  2  0  0  0  0
  4  9  1  0  0  0  0
  4  5  1  0  0  0  0
  5 17  1  0  0  0  0
  6  5  2  0  0  0  0
  7  8  1  0  0  0  0
  8  1  1  0  0  0  0
  9 11  1  0  0  0  0
 10  9  2  0  0  0  0
 11 16  1  0  0  0  0
 12 11  2  0  0  0  0
 12 13  1  0  0  0  0
 13 14  2  0  0  0  0
 14 15  1  0  0  0  0
 16 15  2  0  0  0  0
 18 17  1  0  0  0  0
M  END
>  <MODEL>
7

>  <REMARK>
 VINA RESULT:      -4.3      1.696      2.581
  Name = ox3_orig_f8_ligand
  5 active torsions:
  status: ('A' for Active; 'I' for Inactive)
    1  A    between atoms: C_1  and  O_2
    2  A    between atoms: O_2  and  C_3
    3  A    between atoms: C_6  and  C_7
    4  A    between atoms: C_7  and  C_9
    5  A    between atoms: C_15  and  O_16
                            x       y       z     vdW  Elec       q    Type
                         _______ _______ _______ _____ _____    ______ ____

>  <TORSDO>
F 4

$$$$
ox3_orig_f8_ligand
 OpenBabel10092621233D

 18 19  0  0  0  0  0  0  0  0999 V2000
    8.4910    1.5940    5.1160 C   0  0  0  0  0  0  0  0  0  0  0  0
    8.5000    0.2020    5.2220 C   0  0  0  0  0  3  0  0  0  0  0  0
    7.5150   -0.5470    4.5990 C   0  0  0  0  0  3  0  0  0  0  0  0
    6.5130    0.0770    3.8630 C   0  0  0  0  0  0  0  0  0  0  0  0
    6.5070    1.4690    3.7740 C   0  0  0  0  0  0  0  0  0  0  0  0
    7.4980    2.2140    4.4020 C   0  0  0  0  0  3  0  0  0  0  0  0
    9.1470    3.7370    6.0530 C   0  0  0  0  0  1  0  0  0  0  0  0
    9.4460    2.3830    5.7110 O   0  0  0  0  0  0  0  0  0  0  0  0
    5.4310   -0.7200    3.1910 C   0  0  0  0  0  0  0  0  0  0  0  0
    5.5230   -0.9220    2.0040 O   0  0  0  0  0  0  0  0  0  0  0  0
    4.2470   -1.2320    3.9240 C   0  0  0  0  0  0  0  0  0  0  0  0
    3.0880   -0.4770    4.0480 C   0  0  0  0  0  3  0  0  0  0  0  0
    2.0140   -0.9670    4.7680 C   0  0  0  0  0  3  0  0  0  0  0  0
    2.0530   -2.2280    5.3290 C   0  0  0  0  0  3  0  0  0  0  0  0
    3.2100   -2.9830    5.2230 C   0  0  0  0  0  3  0  0  0  0  0  0
    4.3180   -2.4810    4.5400 C   0  0  0  0  0  3  0  0  0  0  0  0
    5.5160    2.0920    3.0760 O   0  0  0  0  0  0  0  0  0  0  0  0
    4.7340    2.4690    3.5540 H   0  0  0  0  0  0  0  0  0  0  0  0
  1  2  1  0  0  0  0
  1  8  1  0  0  0  0
  3  2  2  0  0  0  0
  4  3  1  0  0  0  0
  5  4  2  0  0  0  0
  5  6  1  0  0  0  0
  6  1  2  0  0  0  0
  8  7  1  0  0  0  0
  9  4  1  0  0  0  0
  9 11  1  0  0  0  0
 10  9  2  0  0  0  0
 11 12  2  0  0  0  0
 11 16  1  0  0  0  0
 12 13  1  0  0  0  0
 13 14  2  0  0  0  0
 15 14  1  0  0  0  0
 16 15  2  0  0  0  0
 17 18  1  0  0  0  0
 17  5  1  0  0  0  0
M  END
>  <MODEL>
8

>  <REMARK>
 VINA RESULT:      -4.3      1.457      2.213
  Name = ox3_orig_f8_ligand
  5 active torsions:
  status: ('A' for Active; 'I' for Inactive)
    1  A    between atoms: C_1  and  O_2
    2  A    between atoms: O_2  and  C_3
    3  A    between atoms: C_6  and  C_7
    4  A    between atoms: C_7  and  C_9
    5  A    between atoms: C_15  and  O_16
                            x       y       z     vdW  Elec       q    Type
                         _______ _______ _______ _____ _____    ______ ____

>  <TORSDO>
F 4

$$$$
ox3_orig_f8_ligand
 OpenBabel10092621233D

 18 19  0  0  0  0  0  0  0  0999 V2000
    3.0340    1.2450   -0.6680 C   0  0  0  0  0  0  0  0  0  0  0  0
    4.0880    0.3340   -0.5750 C   0  0  0  0  0  3  0  0  0  0  0  0
    4.9290    0.3570    0.5260 C   0  0  0  0  0  3  0  0  0  0  0  0
    4.7310    1.2820    1.5460 C   0  0  0  0  0  0  0  0  0  0  0  0
    3.6820    2.1950    1.4370 C   0  0  0  0  0  0  0  0  0  0  0  0
    2.8430    2.1670    0.3290 C   0  0  0  0  0  3  0  0  0  0  0  0
    0.7890    1.5700   -1.5380 C   0  0  0  0  0  1  0  0  0  0  0  0
    2.1690    1.2630   -1.7360 O   0  0  0  0  0  0  0  0  0  0  0  0
    5.6410    1.3270    2.7410 C   0  0  0  0  0  0  0  0  0  0  0  0
    6.1790    2.3730    3.0110 O   0  0  0  0  0  0  0  0  0  0  0  0
    5.9270    0.1300    3.5700 C   0  0  0  0  0  0  0  0  0  0  0  0
    7.1580   -0.0490    4.1860 C   0  0  0  0  0  3  0  0  0  0  0  0
    7.4070   -1.1920    4.9220 C   0  0  0  0  0  3  0  0  0  0  0  0
    6.4260   -2.1470    5.1010 C   0  0  0  0  0  3  0  0  0  0  0  0
    5.1990   -1.9850    4.4780 C   0  0  0  0  0  3  0  0  0  0  0  0
    4.9510   -0.8580    3.6930 C   0  0  0  0  0  3  0  0  0  0  0  0
    3.4940    3.1210    2.4190 O   0  0  0  0  0  0  0  0  0  0  0  0
    4.2220    3.3150    3.0630 H   0  0  0  0  0  0  0  0  0  0  0  0
  1  2  2  0  0  0  0
  1  6  1  0  0  0  0
  2  3  1  0  0  0  0
  3  4  2  0  0  0  0
  4  9  1  0  0  0  0
  5  4  1  0  0  0  0
  5 17  1  0  0  0  0
  6  5  2  0  0  0  0
  8  7  1  0  0  0  0
  8  1  1  0  0  0  0
  9 10  2  0  0  0  0
  9 11  1  0  0  0  0
 11 16  2  0  0  0  0
 11 12  1  0  0  0  0
 12 13  2  0  0  0  0
 13 14  1  0  0  0  0
 15 14  2  0  0  0  0
 16 15  1  0  0  0  0
 17 18  1  0  0  0  0
M  END
>  <MODEL>
9

>  <REMARK>
 VINA RESULT:      -4.3      3.956      5.596
  Name = ox3_orig_f8_ligand
  5 active torsions:
  status: ('A' for Active; 'I' for Inactive)
    1  A    between atoms: C_1  and  O_2
    2  A    between atoms: O_2  and  C_3
    3  A    between atoms: C_6  and  C_7
    4  A    between atoms: C_7  and  C_9
    5  A    between atoms: C_15  and  O_16
                            x       y       z     vdW  Elec       q    Type
                         _______ _______ _______ _____ _____    ______ ____

>  <TORSDO>
F 4

$$$$
