bg33_4_ligand
     RDKit          3D

 44 44  0  0  0  0  0  0  0  0999 V2000
   -3.5680    2.7550    7.2090 C   0  0  0  0  0  0  0  0  0  0  0  0
   -3.9670    1.3760    7.6580 C   0  0  0  0  0  0  0  0  0  0  0  0
   -3.1360    0.2640    7.0220 C   0  0  0  0  0  0  0  0  0  0  0  0
   -3.6870   -1.1060    7.3240 C   0  0  0  0  0  0  0  0  0  0  0  0
   -2.5900   -2.2270    7.0140 C   0  0  1  0  0  0  0  0  0  0  0  0
   -3.1520   -3.5370    6.3890 C   0  0  0  0  0  0  0  0  0  0  0  0
   -3.8100   -4.4560    7.4690 C   0  0  0  0  0  0  0  0  0  0  0  0
   -1.7600   -1.7780    5.9970 O   0  0  0  0  0  0  0  0  0  0  0  0
   -0.3360   -2.1230    6.0250 C   0  0  0  0  0  0  0  0  0  0  0  0
    0.0790   -3.0680    6.7620 O   0  0  0  0  0  0  0  0  0  0  0  0
    0.5190   -1.4180    5.0570 C   0  0  0  0  0  0  0  0  0  0  0  0
   -0.0080   -0.2450    4.4210 C   0  0  0  0  0  0  0  0  0  0  0  0
    0.7770    0.4720    3.3340 C   0  0  0  0  0  0  0  0  0  0  0  0
    2.1550    0.5010    3.3080 C   0  0  0  0  0  0  0  0  0  0  0  0
    2.8690    1.1840    2.2640 C   0  0  0  0  0  0  0  0  0  0  0  0
    2.2020    1.8350    1.2110 C   0  0  0  0  0  0  0  0  0  0  0  0
    2.8330    2.4570    0.1520 O   0  0  0  0  0  0  0  0  0  0  0  0
    4.2800    2.4020    0.0770 C   0  0  0  0  0  0  0  0  0  0  0  0
    0.8110    1.7760    1.2520 C   0  0  0  0  0  0  0  0  0  0  0  0
    0.1200    1.1040    2.2690 C   0  0  0  0  0  0  0  0  0  0  0  0
   -3.3847    3.3885    8.0894 H   0  0  0  0  0  0  0  0  0  0  0  0
   -2.6510    2.6928    6.6046 H   0  0  0  0  0  0  0  0  0  0  0  0
   -4.3765    3.1921    6.6046 H   0  0  0  0  0  0  0  0  0  0  0  0
   -3.8489    1.3177    8.7501 H   0  0  0  0  0  0  0  0  0  0  0  0
   -5.0094    1.2219    7.3422 H   0  0  0  0  0  0  0  0  0  0  0  0
   -3.1265    0.4090    5.9316 H   0  0  0  0  0  0  0  0  0  0  0  0
   -2.1214    0.3191    7.4435 H   0  0  0  0  0  0  0  0  0  0  0  0
   -3.9684   -1.1577    8.3861 H   0  0  0  0  0  0  0  0  0  0  0  0
   -4.5688   -1.2841    6.6910 H   0  0  0  0  0  0  0  0  0  0  0  0
   -2.1234   -2.4173    7.9918 H   0  0  0  0  0  0  0  0  0  0  0  0
   -3.9083   -3.2761    5.6340 H   0  0  0  0  0  0  0  0  0  0  0  0
   -2.3149   -4.0869    5.9342 H   0  0  0  0  0  0  0  0  0  0  0  0
   -3.5472   -4.0890    8.4721 H   0  0  0  0  0  0  0  0  0  0  0  0
   -4.9031   -4.4400    7.3474 H   0  0  0  0  0  0  0  0  0  0  0  0
   -3.4426   -5.4857    7.3474 H   0  0  0  0  0  0  0  0  0  0  0  0
    1.5322   -1.7796    4.8278 H   0  0  0  0  0  0  0  0  0  0  0  0
   -0.9927    0.1407    4.7237 H   0  0  0  0  0  0  0  0  0  0  0  0
    2.7197   -0.0089    4.1024 H   0  0  0  0  0  0  0  0  0  0  0  0
    3.9686    1.1978    2.2895 H   0  0  0  0  0  0  0  0  0  0  0  0
    4.6995    2.3861    1.0937 H   0  0  0  0  0  0  0  0  0  0  0  0
    4.5850    1.4916   -0.4598 H   0  0  0  0  0  0  0  0  0  0  0  0
    4.6532    3.2866   -0.4598 H   0  0  0  0  0  0  0  0  0  0  0  0
    0.2349    2.2743    0.4584 H   0  0  0  0  0  0  0  0  0  0  0  0
   -0.9788    1.0711    2.2303 H   0  0  0  0  0  0  0  0  0  0  0  0
  2  1  1  0
  3  2  1  0
  4  3  1  0
  5  4  1  0
  6  5  1  0
  7  6  1  0
  8  5  1  0
  9  8  1  0
 10  9  2  0
 11  9  1  0
 12 11  2  3
 13 12  1  0
 14 13  1  0
 15 14  2  0
 16 15  1  0
 17 16  1  0
 18 17  1  0
 19 16  2  0
 20 19  1  0
 20 13  2  0
  1 21  1  0
  1 22  1  0
  1 23  1  0
  2 24  1  0
  2 25  1  0
  3 26  1  0
  3 27  1  0
  4 28  1  0
  4 29  1  0
  5 30  1  1
  6 31  1  0
  6 32  1  0
  7 33  1  0
  7 34  1  0
  7 35  1  0
 11 36  1  0
 12 37  1  0
 14 38  1  0
 15 39  1  0
 18 40  1  0
 18 41  1  0
 18 42  1  0
 19 43  1  0
 20 44  1  0
M  END
$$$$
