ox2_orig_f8_ligand
     RDKit          3D

 29 30  0  0  0  0  0  0  0  0999 V2000
    3.5790   -5.3843   -2.2392 C   0  0  0  0  0  0  0  0  0  0  0  0
    2.4861   -6.2557   -2.2611 O   0  0  0  0  0  0  0  0  0  0  0  0
    1.5764   -6.2256   -1.2505 C   0  0  0  0  0  0  0  0  0  0  0  0
    0.5126   -7.0994   -1.3367 C   0  0  0  0  0  0  0  0  0  0  0  0
   -0.4462   -7.1287   -0.3504 C   0  0  0  0  0  0  0  0  0  0  0  0
   -0.3406   -6.2935    0.7353 C   0  0  0  0  0  0  0  0  0  0  0  0
   -1.3775   -6.3432    1.7715 C   0  0  0  0  0  0  0  0  0  0  0  0
   -1.7531   -5.3650    2.1346 O   0  0  0  0  0  0  0  0  0  0  0  0
   -2.0946   -7.4827    2.2864 C   0  0  0  0  0  0  0  0  0  0  0  0
   -1.4579   -8.6811    2.4523 C   0  0  0  0  0  0  0  0  0  0  0  0
   -2.1393   -9.7676    2.9541 C   0  0  0  0  0  0  0  0  0  0  0  0
   -3.4711   -9.6632    3.2781 C   0  0  0  0  0  0  0  0  0  0  0  0
   -4.1121   -8.4514    3.1324 C   0  0  0  0  0  0  0  0  0  0  0  0
   -3.4255   -7.3487    2.6460 C   0  0  0  0  0  0  0  0  0  0  0  0
    0.7213   -5.3960    0.8234 C   0  0  0  0  0  0  0  0  0  0  0  0
    0.8082   -4.5600    1.8705 O   0  0  0  0  0  0  0  0  0  0  0  0
    1.6723   -5.3739   -0.1716 C   0  0  0  0  0  0  0  0  0  0  0  0
    3.8932   -5.1643   -3.2702 H   0  0  0  0  0  0  0  0  0  0  0  0
    3.2923   -4.4492   -1.7358 H   0  0  0  0  0  0  0  0  0  0  0  0
    4.4114   -5.8537   -1.6944 H   0  0  0  0  0  0  0  0  0  0  0  0
    0.4304   -7.7770   -2.1993 H   0  0  0  0  0  0  0  0  0  0  0  0
   -1.2973   -7.8208   -0.4312 H   0  0  0  0  0  0  0  0  0  0  0  0
   -0.3957   -8.7780    2.1836 H   0  0  0  0  0  0  0  0  0  0  0  0
   -1.6150  -10.7241    3.0965 H   0  0  0  0  0  0  0  0  0  0  0  0
   -4.0213  -10.5399    3.6508 H   0  0  0  0  0  0  0  0  0  0  0  0
   -5.1741   -8.3584    3.4033 H   0  0  0  0  0  0  0  0  0  0  0  0
   -3.9327   -6.3777    2.5469 H   0  0  0  0  0  0  0  0  0  0  0  0
    1.5627   -3.9221    1.9333 H   0  0  0  0  0  0  0  0  0  0  0  0
    2.5156   -4.6707   -0.1049 H   0  0  0  0  0  0  0  0  0  0  0  0
  2  1  1  0
  3  2  1  0
  4  3  1  0
  5  4  2  0
  6  5  1  0
  7  6  1  0
  8  7  2  0
  9  7  1  0
 10  9  2  0
 11 10  1  0
 12 11  2  0
 13 12  1  0
 14 13  2  0
 14  9  1  0
 15  6  2  0
 16 15  1  0
 17 15  1  0
 17  3  2  0
  1 18  1  0
  1 19  1  0
  1 20  1  0
  4 21  1  0
  5 22  1  0
 10 23  1  0
 11 24  1  0
 12 25  1  0
 13 26  1  0
 14 27  1  0
 16 28  1  0
 17 29  1  0
M  END
$$$$
