ox2_orig_f8_ligand
 OpenBabel10092621203D

 18 19  0  0  0  0  0  0  0  0999 V2000
    0.3250   -5.5570    1.1910 C   0  0  0  0  0  0  0  0  0  0  0  0
    0.0980   -6.5170    0.2280 C   0  0  0  0  0  3  0  0  0  0  0  0
    0.5880   -6.3530   -1.0480 C   0  0  0  0  0  3  0  0  0  0  0  0
    1.2990   -5.2220   -1.3700 C   0  0  0  0  0  0  0  0  0  0  0  0
    1.5470   -4.2550   -0.3990 C   0  0  0  0  0  0  0  0  0  0  0  0
    1.0530   -4.4320    0.8740 C   0  0  0  0  0  3  0  0  0  0  0  0
   -1.5580   -5.5850    2.6580 C   0  0  0  0  0  1  0  0  0  0  0  0
   -0.1940   -5.7860    2.4280 O   0  0  0  0  0  0  0  0  0  0  0  0
    1.8120   -5.0720   -2.7360 C   0  0  0  0  0  0  0  0  0  0  0  0
    1.6560   -4.0820   -3.2110 O   0  0  0  0  0  0  0  0  0  0  0  0
    2.6310   -5.9770   -3.5040 C   0  0  0  0  0  0  0  0  0  0  0  0
    3.7520   -6.5310   -2.9510 C   0  0  0  0  0  3  0  0  0  0  0  0
    4.5290   -7.4050   -3.6790 C   0  0  0  0  0  3  0  0  0  0  0  0
    4.1940   -7.7160   -4.9750 C   0  0  0  0  0  3  0  0  0  0  0  0
    3.0530   -7.1760   -5.5300 C   0  0  0  0  0  3  0  0  0  0  0  0
    2.2570   -6.3110   -4.7940 C   0  0  0  0  0  3  0  0  0  0  0  0
    2.2650   -3.1620   -0.7080 O   0  0  0  0  0  0  0  0  0  0  0  0
    2.0750   -2.6660   -1.5440 H   0  0  0  0  0  0  0  0  0  0  0  0
  1  8  1  0  0  0  0
  2  1  2  0  0  0  0
  3  2  1  0  0  0  0
  4  3  2  0  0  0  0
  4  5  1  0  0  0  0
  5  6  2  0  0  0  0
  6  1  1  0  0  0  0
  8  7  1  0  0  0  0
  9  4  1  0  0  0  0
 10  9  2  0  0  0  0
 11 12  1  0  0  0  0
 11  9  1  0  0  0  0
 13 12  2  0  0  0  0
 14 13  1  0  0  0  0
 15 14  2  0  0  0  0
 15 16  1  0  0  0  0
 16 11  2  0  0  0  0
 17  5  1  0  0  0  0
 18 17  1  0  0  0  0
M  END
>  <MODEL>
1

>  <REMARK>
 VINA RESULT:      -6.3      0.000      0.000
  Name = ox2_orig_f8_ligand
  5 active torsions:
  status: ('A' for Active; 'I' for Inactive)
    1  A    between atoms: C_1  and  O_2
    2  A    between atoms: O_2  and  C_3
    3  A    between atoms: C_6  and  C_7
    4  A    between atoms: C_7  and  C_9
    5  A    between atoms: C_15  and  O_16
                            x       y       z     vdW  Elec       q    Type
                         _______ _______ _______ _____ _____    ______ ____

>  <TORSDO>
F 4

$$$$
ox2_orig_f8_ligand
 OpenBabel10092621203D

 18 19  0  0  0  0  0  0  0  0999 V2000
    0.3640   -5.5920    1.3640 C   0  0  0  0  0  0  0  0  0  0  0  0
    0.3280   -6.6960    0.5380 C   0  0  0  0  0  3  0  0  0  0  0  0
    0.9490   -6.6660   -0.6900 C   0  0  0  0  0  3  0  0  0  0  0  0
    1.6010   -5.5300   -1.1030 C   0  0  0  0  0  0  0  0  0  0  0  0
    1.6560   -4.4160   -0.2680 C   0  0  0  0  0  0  0  0  0  0  0  0
    1.0330   -4.4590    0.9590 C   0  0  0  0  0  3  0  0  0  0  0  0
   -1.6600   -5.5120    2.6270 C   0  0  0  0  0  1  0  0  0  0  0  0
   -0.2750   -5.6940    2.5610 O   0  0  0  0  0  0  0  0  0  0  0  0
    2.2560   -5.5250   -2.4150 C   0  0  0  0  0  0  0  0  0  0  0  0
    3.3630   -5.5920   -2.4090 O   0  0  0  0  0  0  0  0  0  0  0  0
    1.6640   -5.6000   -3.7280 C   0  0  0  0  0  0  0  0  0  0  0  0
    2.3110   -6.2530   -4.7390 C   0  0  0  0  0  3  0  0  0  0  0  0
    1.7420   -6.3360   -5.9910 C   0  0  0  0  0  3  0  0  0  0  0  0
    0.5240   -5.7490   -6.2390 C   0  0  0  0  0  3  0  0  0  0  0  0
   -0.1420   -5.1070   -5.2160 C   0  0  0  0  0  3  0  0  0  0  0  0
    0.4180   -5.0390   -3.9500 C   0  0  0  0  0  3  0  0  0  0  0  0
    2.3160   -3.3140   -0.6620 O   0  0  0  0  0  0  0  0  0  0  0  0
    3.2930   -3.2460   -0.5180 H   0  0  0  0  0  0  0  0  0  0  0  0
  1  8  1  0  0  0  0
  2  1  2  0  0  0  0
  3  2  1  0  0  0  0
  4  3  2  0  0  0  0
  4  5  1  0  0  0  0
  5  6  2  0  0  0  0
  6  1  1  0  0  0  0
  8  7  1  0  0  0  0
  9 10  2  0  0  0  0
  9  4  1  0  0  0  0
 11  9  1  0  0  0  0
 12 11  2  0  0  0  0
 13 12  1  0  0  0  0
 14 13  2  0  0  0  0
 14 15  1  0  0  0  0
 15 16  2  0  0  0  0
 16 11  1  0  0  0  0
 17 18  1  0  0  0  0
 17  5  1  0  0  0  0
M  END
>  <MODEL>
2

>  <REMARK>
 VINA RESULT:      -6.0      1.263      1.989
  Name = ox2_orig_f8_ligand
  5 active torsions:
  status: ('A' for Active; 'I' for Inactive)
    1  A    between atoms: C_1  and  O_2
    2  A    between atoms: O_2  and  C_3
    3  A    between atoms: C_6  and  C_7
    4  A    between atoms: C_7  and  C_9
    5  A    between atoms: C_15  and  O_16
                            x       y       z     vdW  Elec       q    Type
                         _______ _______ _______ _____ _____    ______ ____

>  <TORSDO>
F 4

$$$$
ox2_orig_f8_ligand
 OpenBabel10092621203D

 18 19  0  0  0  0  0  0  0  0999 V2000
    1.8240   -4.2530   -1.4790 C   0  0  0  0  0  0  0  0  0  0  0  0
    0.8440   -3.4510   -2.0230 C   0  0  0  0  0  3  0  0  0  0  0  0
    0.4450   -3.6280   -3.3280 C   0  0  0  0  0  3  0  0  0  0  0  0
    1.0320   -4.6010   -4.1000 C   0  0  0  0  0  0  0  0  0  0  0  0
    2.0120   -5.4270   -3.5530 C   0  0  0  0  0  0  0  0  0  0  0  0
    2.4010   -5.2410   -2.2460 C   0  0  0  0  0  3  0  0  0  0  0  0
    1.4330   -4.6020    0.8500 C   0  0  0  0  0  1  0  0  0  0  0  0
    2.1690   -4.0160   -0.1840 O   0  0  0  0  0  0  0  0  0  0  0  0
    0.5870   -4.7710   -5.4870 C   0  0  0  0  0  0  0  0  0  0  0  0
    1.1960   -4.2620   -6.2610 O   0  0  0  0  0  0  0  0  0  0  0  0
   -0.4420   -5.6330   -6.0130 C   0  0  0  0  0  0  0  0  0  0  0  0
   -0.8610   -6.7210   -5.3000 C   0  0  0  0  0  3  0  0  0  0  0  0
   -1.8530   -7.5390   -5.7950 C   0  0  0  0  0  3  0  0  0  0  0  0
   -2.4200   -7.2770   -7.0200 C   0  0  0  0  0  3  0  0  0  0  0  0
   -2.0160   -6.1680   -7.7330 C   0  0  0  0  0  3  0  0  0  0  0  0
   -1.0320   -5.3310   -7.2290 C   0  0  0  0  0  3  0  0  0  0  0  0
    2.5670   -6.3950   -4.3010 O   0  0  0  0  0  0  0  0  0  0  0  0
    3.3040   -6.1770   -4.9250 H   0  0  0  0  0  0  0  0  0  0  0  0
  1  8  1  0  0  0  0
  2  1  1  0  0  0  0
  3  2  2  0  0  0  0
  4  5  2  0  0  0  0
  4  3  1  0  0  0  0
  5  6  1  0  0  0  0
  6  1  2  0  0  0  0
  8  7  1  0  0  0  0
  9  4  1  0  0  0  0
 10  9  2  0  0  0  0
 11  9  1  0  0  0  0
 11 12  1  0  0  0  0
 13 12  2  0  0  0  0
 14 13  1  0  0  0  0
 15 16  1  0  0  0  0
 15 14  2  0  0  0  0
 16 11  2  0  0  0  0
 17  5  1  0  0  0  0
 18 17  1  0  0  0  0
M  END
>  <MODEL>
3

>  <REMARK>
 VINA RESULT:      -5.9      2.953      4.383
  Name = ox2_orig_f8_ligand
  5 active torsions:
  status: ('A' for Active; 'I' for Inactive)
    1  A    between atoms: C_1  and  O_2
    2  A    between atoms: O_2  and  C_3
    3  A    between atoms: C_6  and  C_7
    4  A    between atoms: C_7  and  C_9
    5  A    between atoms: C_15  and  O_16
                            x       y       z     vdW  Elec       q    Type
                         _______ _______ _______ _____ _____    ______ ____

>  <TORSDO>
F 4

$$$$
ox2_orig_f8_ligand
 OpenBabel10092621203D

 18 19  0  0  0  0  0  0  0  0999 V2000
   -3.5770   -7.4030    1.7340 C   0  0  0  0  0  0  0  0  0  0  0  0
   -2.9190   -7.9690    0.6630 C   0  0  0  0  0  3  0  0  0  0  0  0
   -1.6150   -7.6240    0.3860 C   0  0  0  0  0  3  0  0  0  0  0  0
   -0.9660   -6.7040    1.1730 C   0  0  0  0  0  0  0  0  0  0  0  0
   -1.6180   -6.1400    2.2670 C   0  0  0  0  0  0  0  0  0  0  0  0
   -2.9210   -6.4950    2.5350 C   0  0  0  0  0  3  0  0  0  0  0  0
   -5.5360   -8.5300    0.9650 C   0  0  0  0  0  1  0  0  0  0  0  0
   -4.8650   -7.7900    1.9430 O   0  0  0  0  0  0  0  0  0  0  0  0
    0.4230   -6.3560    0.8580 C   0  0  0  0  0  0  0  0  0  0  0  0
    1.2050   -6.9060    1.4210 O   0  0  0  0  0  0  0  0  0  0  0  0
    0.9330   -5.5070   -0.1900 C   0  0  0  0  0  0  0  0  0  0  0  0
    1.1950   -4.1880    0.0580 C   0  0  0  0  0  3  0  0  0  0  0  0
    1.6930   -3.3780   -0.9390 C   0  0  0  0  0  3  0  0  0  0  0  0
    1.9160   -3.8840   -2.1970 C   0  0  0  0  0  3  0  0  0  0  0  0
    1.6740   -5.2190   -2.4460 C   0  0  0  0  0  3  0  0  0  0  0  0
    1.1910   -6.0420   -1.4400 C   0  0  0  0  0  3  0  0  0  0  0  0
   -0.9740   -5.2610    3.0520 O   0  0  0  0  0  0  0  0  0  0  0  0
   -0.9470   -4.3020    2.8020 H   0  0  0  0  0  0  0  0  0  0  0  0
  1  8  1  0  0  0  0
  1  6  1  0  0  0  0
  2  1  2  0  0  0  0
  3  2  1  0  0  0  0
  3  4  2  0  0  0  0
  4  5  1  0  0  0  0
  5  6  2  0  0  0  0
  5 17  1  0  0  0  0
  7  8  1  0  0  0  0
  9  4  1  0  0  0  0
  9 10  2  0  0  0  0
 11 12  1  0  0  0  0
 11  9  1  0  0  0  0
 13 12  2  0  0  0  0
 14 13  1  0  0  0  0
 15 14  2  0  0  0  0
 15 16  1  0  0  0  0
 16 11  2  0  0  0  0
 18 17  1  0  0  0  0
M  END
>  <MODEL>
4

>  <REMARK>
 VINA RESULT:      -5.9      2.651      4.517
  Name = ox2_orig_f8_ligand
  5 active torsions:
  status: ('A' for Active; 'I' for Inactive)
    1  A    between atoms: C_1  and  O_2
    2  A    between atoms: O_2  and  C_3
    3  A    between atoms: C_6  and  C_7
    4  A    between atoms: C_7  and  C_9
    5  A    between atoms: C_15  and  O_16
                            x       y       z     vdW  Elec       q    Type
                         _______ _______ _______ _____ _____    ______ ____

>  <TORSDO>
F 4

$$$$
ox2_orig_f8_ligand
 OpenBabel10092621203D

 18 19  0  0  0  0  0  0  0  0999 V2000
   -2.7000   -7.9150    2.9820 C   0  0  0  0  0  0  0  0  0  0  0  0
   -1.5480   -8.5210    2.5290 C   0  0  0  0  0  3  0  0  0  0  0  0
   -0.4730   -7.7600    2.1280 C   0  0  0  0  0  3  0  0  0  0  0  0
   -0.5490   -6.3890    2.1680 C   0  0  0  0  0  0  0  0  0  0  0  0
   -1.7030   -5.7690    2.6390 C   0  0  0  0  0  0  0  0  0  0  0  0
   -2.7700   -6.5400    3.0400 C   0  0  0  0  0  3  0  0  0  0  0  0
   -3.9790   -9.9010    2.6370 C   0  0  0  0  0  1  0  0  0  0  0  0
   -3.7220   -8.7310    3.3580 O   0  0  0  0  0  0  0  0  0  0  0  0
    0.6110   -5.6020    1.7360 C   0  0  0  0  0  0  0  0  0  0  0  0
    1.3360   -5.3240    2.5290 O   0  0  0  0  0  0  0  0  0  0  0  0
    1.0340   -5.2620    0.4000 C   0  0  0  0  0  0  0  0  0  0  0  0
    1.3190   -3.9650    0.0770 C   0  0  0  0  0  3  0  0  0  0  0  0
    1.7340   -3.6390   -1.1960 C   0  0  0  0  0  3  0  0  0  0  0  0
    1.8500   -4.6140   -2.1580 C   0  0  0  0  0  3  0  0  0  0  0  0
    1.5840   -5.9270   -1.8310 C   0  0  0  0  0  3  0  0  0  0  0  0
    1.1850   -6.2620   -0.5450 C   0  0  0  0  0  3  0  0  0  0  0  0
   -1.7660   -4.4280    2.7030 O   0  0  0  0  0  0  0  0  0  0  0  0
   -0.9990   -3.9140    3.0620 H   0  0  0  0  0  0  0  0  0  0  0  0
  1  6  1  0  0  0  0
  1  8  1  0  0  0  0
  2  1  2  0  0  0  0
  3  4  2  0  0  0  0
  3  2  1  0  0  0  0
  4  5  1  0  0  0  0
  5 17  1  0  0  0  0
  5  6  2  0  0  0  0
  7  8  1  0  0  0  0
  9  4  1  0  0  0  0
  9 10  2  0  0  0  0
 11  9  1  0  0  0  0
 12 11  1  0  0  0  0
 13 12  2  0  0  0  0
 14 15  2  0  0  0  0
 14 13  1  0  0  0  0
 15 16  1  0  0  0  0
 16 11  2  0  0  0  0
 17 18  1  0  0  0  0
M  END
>  <MODEL>
5

>  <REMARK>
 VINA RESULT:      -5.9      2.764      4.642
  Name = ox2_orig_f8_ligand
  5 active torsions:
  status: ('A' for Active; 'I' for Inactive)
    1  A    between atoms: C_1  and  O_2
    2  A    between atoms: O_2  and  C_3
    3  A    between atoms: C_6  and  C_7
    4  A    between atoms: C_7  and  C_9
    5  A    between atoms: C_15  and  O_16
                            x       y       z     vdW  Elec       q    Type
                         _______ _______ _______ _____ _____    ______ ____

>  <TORSDO>
F 4

$$$$
ox2_orig_f8_ligand
 OpenBabel10092621203D

 18 19  0  0  0  0  0  0  0  0999 V2000
    1.7530   -5.5400   -4.6060 C   0  0  0  0  0  0  0  0  0  0  0  0
    2.3950   -6.3030   -3.6550 C   0  0  0  0  0  3  0  0  0  0  0  0
    2.3740   -5.9270   -2.3310 C   0  0  0  0  0  3  0  0  0  0  0  0
    1.7180   -4.7810   -1.9530 C   0  0  0  0  0  0  0  0  0  0  0  0
    1.0530   -4.0130   -2.9050 C   0  0  0  0  0  0  0  0  0  0  0  0
    1.0790   -4.4000   -4.2250 C   0  0  0  0  0  3  0  0  0  0  0  0
    0.8110   -5.6230   -6.7990 C   0  0  0  0  0  1  0  0  0  0  0  0
    1.8200   -5.9710   -5.8950 O   0  0  0  0  0  0  0  0  0  0  0  0
    1.7090   -4.4040   -0.5350 C   0  0  0  0  0  0  0  0  0  0  0  0
    2.1500   -3.4180   -0.2880 O   0  0  0  0  0  0  0  0  0  0  0  0
    1.0680   -5.0630    0.5760 C   0  0  0  0  0  0  0  0  0  0  0  0
    1.6770   -5.0980    1.8000 C   0  0  0  0  0  3  0  0  0  0  0  0
    1.0610   -5.7160    2.8660 C   0  0  0  0  0  3  0  0  0  0  0  0
   -0.1640   -6.3180    2.7060 C   0  0  0  0  0  3  0  0  0  0  0  0
   -0.7910   -6.2670    1.4790 C   0  0  0  0  0  3  0  0  0  0  0  0
   -0.1840   -5.6280    0.4080 C   0  0  0  0  0  3  0  0  0  0  0  0
    0.3890   -2.9060   -2.5300 O   0  0  0  0  0  0  0  0  0  0  0  0
   -0.1110   -2.3780   -3.2020 H   0  0  0  0  0  0  0  0  0  0  0  0
  1  6  2  0  0  0  0
  1  2  1  0  0  0  0
  2  3  2  0  0  0  0
  3  4  1  0  0  0  0
  4  9  1  0  0  0  0
  5 17  1  0  0  0  0
  5  4  2  0  0  0  0
  6  5  1  0  0  0  0
  7  8  1  0  0  0  0
  8  1  1  0  0  0  0
  9 10  2  0  0  0  0
  9 11  1  0  0  0  0
 11 12  1  0  0  0  0
 12 13  2  0  0  0  0
 14 13  1  0  0  0  0
 15 14  2  0  0  0  0
 16 11  2  0  0  0  0
 16 15  1  0  0  0  0
 18 17  1  0  0  0  0
M  END
>  <MODEL>
6

>  <REMARK>
 VINA RESULT:      -5.8      1.758      5.785
  Name = ox2_orig_f8_ligand
  5 active torsions:
  status: ('A' for Active; 'I' for Inactive)
    1  A    between atoms: C_1  and  O_2
    2  A    between atoms: O_2  and  C_3
    3  A    between atoms: C_6  and  C_7
    4  A    between atoms: C_7  and  C_9
    5  A    between atoms: C_15  and  O_16
                            x       y       z     vdW  Elec       q    Type
                         _______ _______ _______ _____ _____    ______ ____

>  <TORSDO>
F 4

$$$$
ox2_orig_f8_ligand
 OpenBabel10092621203D

 18 19  0  0  0  0  0  0  0  0999 V2000
   -1.7510   -6.4380   -6.8640 C   0  0  0  0  0  0  0  0  0  0  0  0
   -1.5960   -7.1150   -5.6730 C   0  0  0  0  0  3  0  0  0  0  0  0
   -0.5330   -6.8330   -4.8450 C   0  0  0  0  0  3  0  0  0  0  0  0
    0.3870   -5.8790   -5.2090 C   0  0  0  0  0  0  0  0  0  0  0  0
    0.2290   -5.1780   -6.4020 C   0  0  0  0  0  0  0  0  0  0  0  0
   -0.8400   -5.4680   -7.2200 C   0  0  0  0  0  3  0  0  0  0  0  0
   -2.9190   -6.2900   -8.9400 C   0  0  0  0  0  1  0  0  0  0  0  0
   -2.8230   -6.7730   -7.6310 O   0  0  0  0  0  0  0  0  0  0  0  0
    1.5090   -5.5960   -4.3080 C   0  0  0  0  0  0  0  0  0  0  0  0
    2.4800   -6.0620   -4.5750 O   0  0  0  0  0  0  0  0  0  0  0  0
    1.5780   -4.6720   -3.2040 C   0  0  0  0  0  0  0  0  0  0  0  0
    1.1190   -3.3920   -3.3460 C   0  0  0  0  0  3  0  0  0  0  0  0
    1.1730   -2.5110   -2.2880 C   0  0  0  0  0  3  0  0  0  0  0  0
    1.7040   -2.9060   -1.0830 C   0  0  0  0  0  3  0  0  0  0  0  0
    2.1480   -4.2020   -0.9290 C   0  0  0  0  0  3  0  0  0  0  0  0
    2.0770   -5.0980   -1.9850 C   0  0  0  0  0  3  0  0  0  0  0  0
    1.1140   -4.2270   -6.7440 O   0  0  0  0  0  0  0  0  0  0  0  0
    1.2270   -3.4280   -6.1690 H   0  0  0  0  0  0  0  0  0  0  0  0
  1  2  1  0  0  0  0
  2  3  2  0  0  0  0
  4  3  1  0  0  0  0
  4  9  1  0  0  0  0
  5  4  2  0  0  0  0
  6  1  2  0  0  0  0
  6  5  1  0  0  0  0
  7  8  1  0  0  0  0
  8  1  1  0  0  0  0
  9 11  1  0  0  0  0
 10  9  2  0  0  0  0
 11 16  1  0  0  0  0
 12 11  2  0  0  0  0
 12 13  1  0  0  0  0
 13 14  2  0  0  0  0
 14 15  1  0  0  0  0
 16 15  2  0  0  0  0
 17  5  1  0  0  0  0
 17 18  1  0  0  0  0
M  END
>  <MODEL>
7

>  <REMARK>
 VINA RESULT:      -5.7      3.418      6.346
  Name = ox2_orig_f8_ligand
  5 active torsions:
  status: ('A' for Active; 'I' for Inactive)
    1  A    between atoms: C_1  and  O_2
    2  A    between atoms: O_2  and  C_3
    3  A    between atoms: C_6  and  C_7
    4  A    between atoms: C_7  and  C_9
    5  A    between atoms: C_15  and  O_16
                            x       y       z     vdW  Elec       q    Type
                         _______ _______ _______ _____ _____    ______ ____

>  <TORSDO>
F 4

$$$$
ox2_orig_f8_ligand
 OpenBabel10092621203D

 18 19  0  0  0  0  0  0  0  0999 V2000
   -2.1740   -6.6730    2.4480 C   0  0  0  0  0  0  0  0  0  0  0  0
   -1.2210   -5.6960    2.6400 C   0  0  0  0  0  3  0  0  0  0  0  0
   -0.2470   -5.4770    1.6910 C   0  0  0  0  0  3  0  0  0  0  0  0
   -0.2150   -6.2420    0.5510 C   0  0  0  0  0  0  0  0  0  0  0  0
   -1.1840   -7.2210    0.3410 C   0  0  0  0  0  0  0  0  0  0  0  0
   -2.1540   -7.4280    1.2960 C   0  0  0  0  0  3  0  0  0  0  0  0
   -4.3150   -7.4660    3.1430 C   0  0  0  0  0  1  0  0  0  0  0  0
   -3.1020   -6.8340    3.4300 O   0  0  0  0  0  0  0  0  0  0  0  0
    0.8310   -5.9880   -0.4450 C   0  0  0  0  0  0  0  0  0  0  0  0
    1.5140   -6.8340   -0.6630 O   0  0  0  0  0  0  0  0  0  0  0  0
    1.0120   -4.8420   -1.3020 C   0  0  0  0  0  0  0  0  0  0  0  0
    1.4370   -3.6520   -0.7800 C   0  0  0  0  0  3  0  0  0  0  0  0
    1.6220   -2.5600   -1.5990 C   0  0  0  0  0  3  0  0  0  0  0  0
    1.3650   -2.6520   -2.9470 C   0  0  0  0  0  3  0  0  0  0  0  0
    0.9570   -3.8560   -3.4800 C   0  0  0  0  0  3  0  0  0  0  0  0
    0.7890   -4.9630   -2.6630 C   0  0  0  0  0  3  0  0  0  0  0  0
   -1.1680   -7.9500   -0.7870 O   0  0  0  0  0  0  0  0  0  0  0  0
   -0.5950   -8.7560   -0.8470 H   0  0  0  0  0  0  0  0  0  0  0  0
  1  2  1  0  0  0  0
  1  8  1  0  0  0  0
  3  2  2  0  0  0  0
  4  3  1  0  0  0  0
  5  4  2  0  0  0  0
  5  6  1  0  0  0  0
  6  1  2  0  0  0  0
  7  8  1  0  0  0  0
  9  4  1  0  0  0  0
 10  9  2  0  0  0  0
 11 12  1  0  0  0  0
 11  9  1  0  0  0  0
 13 12  2  0  0  0  0
 14 13  1  0  0  0  0
 15 14  2  0  0  0  0
 15 16  1  0  0  0  0
 16 11  2  0  0  0  0
 17  5  1  0  0  0  0
 18 17  1  0  0  0  0
M  END
>  <MODEL>
8

>  <REMARK>
 VINA RESULT:      -5.7      2.810      4.033
  Name = ox2_orig_f8_ligand
  5 active torsions:
  status: ('A' for Active; 'I' for Inactive)
    1  A    between atoms: C_1  and  O_2
    2  A    between atoms: O_2  and  C_3
    3  A    between atoms: C_6  and  C_7
    4  A    between atoms: C_7  and  C_9
    5  A    between atoms: C_15  and  O_16
                            x       y       z     vdW  Elec       q    Type
                         _______ _______ _______ _____ _____    ______ ____

>  <TORSDO>
F 4

$$$$
ox2_orig_f8_ligand
 OpenBabel10092621203D

 18 19  0  0  0  0  0  0  0  0999 V2000
   -1.2400   -8.3960    1.1760 C   0  0  0  0  0  0  0  0  0  0  0  0
   -0.1380   -8.4990    0.3550 C   0  0  0  0  0  3  0  0  0  0  0  0
    0.6140   -7.3860    0.0550 C   0  0  0  0  0  3  0  0  0  0  0  0
    0.2610   -6.1610    0.5660 C   0  0  0  0  0  0  0  0  0  0  0  0
   -0.8420   -6.0500    1.4110 C   0  0  0  0  0  0  0  0  0  0  0  0
   -1.5830   -7.1720    1.7050 C   0  0  0  0  0  3  0  0  0  0  0  0
   -2.2580   -9.8840    2.7410 C   0  0  0  0  0  1  0  0  0  0  0  0
   -1.9360   -9.5380    1.4250 O   0  0  0  0  0  0  0  0  0  0  0  0
    1.0790   -4.9900    0.2330 C   0  0  0  0  0  0  0  0  0  0  0  0
    1.8310   -4.6880    0.9900 O   0  0  0  0  0  0  0  0  0  0  0  0
    1.1580   -4.2590   -1.0080 C   0  0  0  0  0  0  0  0  0  0  0  0
    1.4500   -2.9240   -1.0030 C   0  0  0  0  0  3  0  0  0  0  0  0
    1.5380   -2.2270   -2.1880 C   0  0  0  0  0  3  0  0  0  0  0  0
    1.3170   -2.8640   -3.3860 C   0  0  0  0  0  3  0  0  0  0  0  0
    1.0430   -4.2150   -3.3960 C   0  0  0  0  0  3  0  0  0  0  0  0
    0.9730   -4.9250   -2.2070 C   0  0  0  0  0  3  0  0  0  0  0  0
   -1.1700   -4.8560    1.9320 O   0  0  0  0  0  0  0  0  0  0  0  0
   -2.1080   -4.6700    2.1880 H   0  0  0  0  0  0  0  0  0  0  0  0
  1  8  1  0  0  0  0
  1  6  1  0  0  0  0
  2  1  2  0  0  0  0
  3  2  1  0  0  0  0
  3  4  2  0  0  0  0
  4  5  1  0  0  0  0
  5  6  2  0  0  0  0
  5 17  1  0  0  0  0
  8  7  1  0  0  0  0
  9  4  1  0  0  0  0
  9 10  2  0  0  0  0
 11 12  1  0  0  0  0
 11  9  1  0  0  0  0
 13 12  2  0  0  0  0
 14 13  1  0  0  0  0
 15 14  2  0  0  0  0
 15 16  1  0  0  0  0
 16 11  2  0  0  0  0
 17 18  1  0  0  0  0
M  END
>  <MODEL>
9

>  <REMARK>
 VINA RESULT:      -5.6      2.673      3.981
  Name = ox2_orig_f8_ligand
  5 active torsions:
  status: ('A' for Active; 'I' for Inactive)
    1  A    between atoms: C_1  and  O_2
    2  A    between atoms: O_2  and  C_3
    3  A    between atoms: C_6  and  C_7
    4  A    between atoms: C_7  and  C_9
    5  A    between atoms: C_15  and  O_16
                            x       y       z     vdW  Elec       q    Type
                         _______ _______ _______ _____ _____    ______ ____

>  <TORSDO>
F 4

$$$$
