bgox31_4_ligand
     RDKit          3D

 29 30  0  0  0  0  0  0  0  0999 V2000
   -1.7746    3.0549    8.6078 C   0  0  0  0  0  0  0  0  0  0  0  0
   -1.0520    1.8235    8.3400 O   0  0  0  0  0  0  0  0  0  0  0  0
    0.2455    1.7939    8.7860 C   0  0  0  0  0  0  0  0  0  0  0  0
    1.0362    0.7331    8.4372 C   0  0  0  0  0  0  0  0  0  0  0  0
    2.3960    0.6347    8.9055 C   0  0  0  0  0  0  0  0  0  0  0  0
    2.8793    1.7003    9.6782 C   0  0  0  0  0  0  0  0  0  0  0  0
    4.2809    1.6056   10.1215 C   0  0  0  0  0  0  0  0  0  0  0  0
    4.5593    0.6557   10.9260 O   0  0  0  0  0  0  0  0  0  0  0  0
    5.3915    2.3536    9.5272 C   0  0  0  0  0  0  0  0  0  0  0  0
    6.6858    1.9626    9.8951 C   0  0  0  0  0  0  0  0  0  0  0  0
    7.7864    2.7094    9.4200 C   0  0  0  0  0  0  0  0  0  0  0  0
    7.5719    3.8426    8.7013 C   0  0  0  0  0  0  0  0  0  0  0  0
    6.2996    4.2833    8.3789 C   0  0  0  0  0  0  0  0  0  0  0  0
    5.1771    3.5520    8.8168 C   0  0  0  0  0  0  0  0  0  0  0  0
    2.0494    2.7556   10.0348 C   0  0  0  0  0  0  0  0  0  0  0  0
    2.5918    3.7782   10.8322 O   0  0  0  0  0  0  0  0  0  0  0  0
    0.7165    2.8349    9.5891 C   0  0  0  0  0  0  0  0  0  0  0  0
   -2.6734    3.0975    7.9751 H   0  0  0  0  0  0  0  0  0  0  0  0
   -2.0700    3.0836    9.6669 H   0  0  0  0  0  0  0  0  0  0  0  0
   -1.1275    3.9158    8.3840 H   0  0  0  0  0  0  0  0  0  0  0  0
    0.6280   -0.0568    7.7895 H   0  0  0  0  0  0  0  0  0  0  0  0
    3.0251   -0.2357    8.6677 H   0  0  0  0  0  0  0  0  0  0  0  0
    6.8423    1.0880   10.5437 H   0  0  0  0  0  0  0  0  0  0  0  0
    8.8130    2.3752    9.6309 H   0  0  0  0  0  0  0  0  0  0  0  0
    8.4388    4.4298    8.3641 H   0  0  0  0  0  0  0  0  0  0  0  0
    6.1657    5.1990    7.7844 H   0  0  0  0  0  0  0  0  0  0  0  0
    4.1573    3.9082    8.6089 H   0  0  0  0  0  0  0  0  0  0  0  0
    2.0283    4.5451   11.1047 H   0  0  0  0  0  0  0  0  0  0  0  0
    0.0716    3.6831    9.8624 H   0  0  0  0  0  0  0  0  0  0  0  0
  2  1  1  0
  3  2  1  0
  4  3  1  0
  5  4  2  0
  6  5  1  0
  7  6  1  0
  8  7  2  0
  9  7  1  0
 10  9  2  0
 11 10  1  0
 12 11  2  0
 13 12  1  0
 14 13  2  0
 14  9  1  0
 15  6  2  0
 16 15  1  0
 17 15  1  0
 17  3  2  0
  1 18  1  0
  1 19  1  0
  1 20  1  0
  4 21  1  0
  5 22  1  0
 10 23  1  0
 11 24  1  0
 12 25  1  0
 13 26  1  0
 14 27  1  0
 16 28  1  0
 17 29  1  0
M  END
$$$$
