bgox31_4_ligand
 OpenBabel10092621253D

 18 19  0  0  0  0  0  0  0  0999 V2000
   12.6200    3.4660    8.5100 C   0  0  0  0  0  0  0  0  0  0  0  0
   12.3480    3.0680    9.7910 C   0  0  0  0  0  3  0  0  0  0  0  0
   11.6760    1.8210   10.0550 C   0  0  0  0  0  3  0  0  0  0  0  0
   11.2670    1.0730    8.9420 C   0  0  0  0  0  0  0  0  0  0  0  0
   11.5730    1.4890    7.6520 C   0  0  0  0  0  0  0  0  0  0  0  0
   12.2460    2.7000    7.4040 C   0  0  0  0  0  3  0  0  0  0  0  0
   12.6150    5.8350    8.8120 C   0  0  0  0  0  1  0  0  0  0  0  0
   13.2900    4.6470    8.3160 O   0  0  0  0  0  0  0  0  0  0  0  0
   10.5500   -0.1830    9.2230 C   0  0  0  0  0  0  0  0  0  0  0  0
   11.1370   -1.2610    8.8760 O   0  0  0  0  0  0  0  0  0  0  0  0
    9.3590   -0.2870   10.0680 C   0  0  0  0  0  0  0  0  0  0  0  0
    8.2200    0.4120    9.6450 C   0  0  0  0  0  3  0  0  0  0  0  0
    7.0750    0.4160   10.4700 C   0  0  0  0  0  3  0  0  0  0  0  0
    7.1250   -0.1690   11.6970 C   0  0  0  0  0  3  0  0  0  0  0  0
    8.2590   -0.8110   12.1610 C   0  0  0  0  0  3  0  0  0  0  0  0
    9.4160   -0.8550   11.3560 C   0  0  0  0  0  3  0  0  0  0  0  0
   11.1540    0.6790    6.5830 O   0  0  0  0  0  0  0  0  0  0  0  0
   10.6070   -0.1280    6.7590 H   0  0  0  0  0  0  0  0  0  0  0  0
  1  2  1  0  0  0  0
  2  3  2  0  0  0  0
  4  9  1  0  0  0  0
  4  3  1  0  0  0  0
  5  4  2  0  0  0  0
  6  5  1  0  0  0  0
  6  1  2  0  0  0  0
  8  1  1  0  0  0  0
  8  7  1  0  0  0  0
  9 11  1  0  0  0  0
 10  9  2  0  0  0  0
 11 16  1  0  0  0  0
 12 11  2  0  0  0  0
 12 13  1  0  0  0  0
 13 14  2  0  0  0  0
 14 15  1  0  0  0  0
 16 15  2  0  0  0  0
 17 18  1  0  0  0  0
 17  5  1  0  0  0  0
M  END
>  <MODEL>
1

>  <REMARK>
 VINA RESULT:      -4.7      0.000      0.000
  Name = bgox31_4_ligand
  5 active torsions:
  status: ('A' for Active; 'I' for Inactive)
    1  A    between atoms: C_1  and  O_2
    2  A    between atoms: O_2  and  C_3
    3  A    between atoms: C_6  and  C_7
    4  A    between atoms: C_7  and  C_9
    5  A    between atoms: C_15  and  O_16
                            x       y       z     vdW  Elec       q    Type
                         _______ _______ _______ _____ _____    ______ ____

>  <TORSDO>
F 4

$$$$
bgox31_4_ligand
 OpenBabel10092621253D

 18 19  0  0  0  0  0  0  0  0999 V2000
    7.1080   -0.3870   11.5610 C   0  0  0  0  0  0  0  0  0  0  0  0
    7.1050    0.3080   10.3820 C   0  0  0  0  0  3  0  0  0  0  0  0
    8.2880    0.3860    9.5620 C   0  0  0  0  0  3  0  0  0  0  0  0
    9.4450   -0.2310   10.0580 C   0  0  0  0  0  0  0  0  0  0  0  0
    9.4170   -0.9470   11.2480 C   0  0  0  0  0  0  0  0  0  0  0  0
    8.2530   -1.0330   12.0340 C   0  0  0  0  0  3  0  0  0  0  0  0
    6.1180   -0.5030   13.7310 C   0  0  0  0  0  1  0  0  0  0  0  0
    5.9470   -0.4560   12.2880 O   0  0  0  0  0  0  0  0  0  0  0  0
   10.6570   -0.1150    9.2280 C   0  0  0  0  0  0  0  0  0  0  0  0
   11.0820   -1.1920    8.6920 O   0  0  0  0  0  0  0  0  0  0  0  0
   11.2450    1.1530    8.7900 C   0  0  0  0  0  0  0  0  0  0  0  0
   11.3550    1.3550    7.4080 C   0  0  0  0  0  3  0  0  0  0  0  0
   11.9960    2.5210    6.9360 C   0  0  0  0  0  3  0  0  0  0  0  0
   12.5790    3.3740    7.8200 C   0  0  0  0  0  3  0  0  0  0  0  0
   12.5370    3.1620    9.1870 C   0  0  0  0  0  3  0  0  0  0  0  0
   11.8870    2.0200    9.6960 C   0  0  0  0  0  3  0  0  0  0  0  0
   10.6070   -1.5600   11.6750 O   0  0  0  0  0  0  0  0  0  0  0  0
   10.9540   -2.3550   11.1950 H   0  0  0  0  0  0  0  0  0  0  0  0
  1  6  1  0  0  0  0
  1  8  1  0  0  0  0
  2  1  2  0  0  0  0
  3  4  2  0  0  0  0
  3  2  1  0  0  0  0
  4  5  1  0  0  0  0
  5 17  1  0  0  0  0
  5  6  2  0  0  0  0
  8  7  1  0  0  0  0
  9  4  1  0  0  0  0
 10  9  2  0  0  0  0
 11  9  1  0  0  0  0
 11 16  1  0  0  0  0
 12 11  2  0  0  0  0
 13 12  1  0  0  0  0
 13 14  2  0  0  0  0
 14 15  1  0  0  0  0
 15 16  2  0  0  0  0
 18 17  1  0  0  0  0
M  END
>  <MODEL>
2

>  <REMARK>
 VINA RESULT:      -4.5      1.814      5.941
  Name = bgox31_4_ligand
  5 active torsions:
  status: ('A' for Active; 'I' for Inactive)
    1  A    between atoms: C_1  and  O_2
    2  A    between atoms: O_2  and  C_3
    3  A    between atoms: C_6  and  C_7
    4  A    between atoms: C_7  and  C_9
    5  A    between atoms: C_15  and  O_16
                            x       y       z     vdW  Elec       q    Type
                         _______ _______ _______ _____ _____    ______ ____

>  <TORSDO>
F 4

$$$$
bgox31_4_ligand
 OpenBabel10092621253D

 18 19  0  0  0  0  0  0  0  0999 V2000
    0.4320   -0.3540    0.2390 C   0  0  0  0  0  0  0  0  0  0  0  0
    1.4630   -1.2180   -0.0110 C   0  0  0  0  0  3  0  0  0  0  0  0
    1.2190   -2.6200   -0.2380 C   0  0  0  0  0  3  0  0  0  0  0  0
   -0.1080   -3.0590   -0.1300 C   0  0  0  0  0  0  0  0  0  0  0  0
   -1.1400   -2.1580    0.1050 C   0  0  0  0  0  0  0  0  0  0  0  0
   -0.8950   -0.7870    0.3070 C   0  0  0  0  0  3  0  0  0  0  0  0
    1.6590    1.2760    1.4800 C   0  0  0  0  0  1  0  0  0  0  0  0
    0.7150    0.9770    0.4160 O   0  0  0  0  0  0  0  0  0  0  0  0
   -0.3410   -4.5000   -0.3280 C   0  0  0  0  0  0  0  0  0  0  0  0
   -0.9110   -4.8380   -1.4180 O   0  0  0  0  0  0  0  0  0  0  0  0
    0.2410   -5.5570    0.5020 C   0  0  0  0  0  0  0  0  0  0  0  0
    0.4070   -6.8130   -0.0970 C   0  0  0  0  0  3  0  0  0  0  0  0
    0.8800   -7.8870    0.6870 C   0  0  0  0  0  3  0  0  0  0  0  0
    1.0710   -7.7140    2.0220 C   0  0  0  0  0  3  0  0  0  0  0  0
    0.8530   -6.4990    2.6470 C   0  0  0  0  0  3  0  0  0  0  0  0
    0.4020   -5.3970    1.8930 C   0  0  0  0  0  3  0  0  0  0  0  0
   -2.4490   -2.6620    0.1770 O   0  0  0  0  0  0  0  0  0  0  0  0
   -2.6050   -3.5940    0.4760 H   0  0  0  0  0  0  0  0  0  0  0  0
  1  6  1  0  0  0  0
  1  8  1  0  0  0  0
  2  1  2  0  0  0  0
  3  4  2  0  0  0  0
  3  2  1  0  0  0  0
  4  5  1  0  0  0  0
  5 17  1  0  0  0  0
  5  6  2  0  0  0  0
  8  7  1  0  0  0  0
  9  4  1  0  0  0  0
  9 11  1  0  0  0  0
 10  9  2  0  0  0  0
 11 16  1  0  0  0  0
 12 11  2  0  0  0  0
 12 13  1  0  0  0  0
 13 14  2  0  0  0  0
 14 15  1  0  0  0  0
 16 15  2  0  0  0  0
 17 18  1  0  0  0  0
M  END
>  <MODEL>
3

>  <REMARK>
 VINA RESULT:      -4.5     13.216     14.800
  Name = bgox31_4_ligand
  5 active torsions:
  status: ('A' for Active; 'I' for Inactive)
    1  A    between atoms: C_1  and  O_2
    2  A    between atoms: O_2  and  C_3
    3  A    between atoms: C_6  and  C_7
    4  A    between atoms: C_7  and  C_9
    5  A    between atoms: C_15  and  O_16
                            x       y       z     vdW  Elec       q    Type
                         _______ _______ _______ _____ _____    ______ ____

>  <TORSDO>
F 4

$$$$
bgox31_4_ligand
 OpenBabel10092621253D

 18 19  0  0  0  0  0  0  0  0999 V2000
    6.5820    7.4460   11.8050 C   0  0  0  0  0  0  0  0  0  0  0  0
    6.4910    6.9930   10.5170 C   0  0  0  0  0  3  0  0  0  0  0  0
    6.5020    7.9110    9.4050 C   0  0  0  0  0  3  0  0  0  0  0  0
    6.5490    9.2780    9.7110 C   0  0  0  0  0  0  0  0  0  0  0  0
    6.6610    9.7110   11.0270 C   0  0  0  0  0  0  0  0  0  0  0  0
    6.6680    8.8080   12.1050 C   0  0  0  0  0  3  0  0  0  0  0  0
    6.2340    7.0470   14.1340 C   0  0  0  0  0  1  0  0  0  0  0  0
    6.5990    6.5290   12.8250 O   0  0  0  0  0  0  0  0  0  0  0  0
    6.5240   10.2070    8.5680 C   0  0  0  0  0  0  0  0  0  0  0  0
    7.5820   10.8900    8.3680 O   0  0  0  0  0  0  0  0  0  0  0  0
    5.4890   10.2200    7.5310 C   0  0  0  0  0  0  0  0  0  0  0  0
    5.9140   10.0130    6.2110 C   0  0  0  0  0  3  0  0  0  0  0  0
    4.9690   10.1050    5.1670 C   0  0  0  0  0  3  0  0  0  0  0  0
    3.6930   10.4860    5.4430 C   0  0  0  0  0  3  0  0  0  0  0  0
    3.2670   10.7560    6.7320 C   0  0  0  0  0  3  0  0  0  0  0  0
    4.1770   10.6540    7.8040 C   0  0  0  0  0  3  0  0  0  0  0  0
    6.7280   11.0950   11.2590 O   0  0  0  0  0  0  0  0  0  0  0  0
    6.6120   11.4480   12.1770 H   0  0  0  0  0  0  0  0  0  0  0  0
  1  6  1  0  0  0  0
  1  8  1  0  0  0  0
  2  1  2  0  0  0  0
  3  4  2  0  0  0  0
  3  2  1  0  0  0  0
  4  5  1  0  0  0  0
  5 17  1  0  0  0  0
  5  6  2  0  0  0  0
  8  7  1  0  0  0  0
  9  4  1  0  0  0  0
 10  9  2  0  0  0  0
 11 16  1  0  0  0  0
 11  9  1  0  0  0  0
 12 11  2  0  0  0  0
 13 14  2  0  0  0  0
 13 12  1  0  0  0  0
 14 15  1  0  0  0  0
 15 16  2  0  0  0  0
 17 18  1  0  0  0  0
M  END
>  <MODEL>
4

>  <REMARK>
 VINA RESULT:      -4.4      8.381     10.651
  Name = bgox31_4_ligand
  5 active torsions:
  status: ('A' for Active; 'I' for Inactive)
    1  A    between atoms: C_1  and  O_2
    2  A    between atoms: O_2  and  C_3
    3  A    between atoms: C_6  and  C_7
    4  A    between atoms: C_7  and  C_9
    5  A    between atoms: C_15  and  O_16
                            x       y       z     vdW  Elec       q    Type
                         _______ _______ _______ _____ _____    ______ ____

>  <TORSDO>
F 4

$$$$
bgox31_4_ligand
 OpenBabel10092621253D

 18 19  0  0  0  0  0  0  0  0999 V2000
    3.2050   10.7090    5.8980 C   0  0  0  0  0  0  0  0  0  0  0  0
    3.1270   10.9060    7.2500 C   0  0  0  0  0  3  0  0  0  0  0  0
    4.2890   10.7580    8.0910 C   0  0  0  0  0  3  0  0  0  0  0  0
    5.4750   10.3490    7.4660 C   0  0  0  0  0  0  0  0  0  0  0  0
    5.5330   10.1760    6.0890 C   0  0  0  0  0  0  0  0  0  0  0  0
    4.3990   10.3400    5.2730 C   0  0  0  0  0  3  0  0  0  0  0  0
    1.5840    9.7090    4.4580 C   0  0  0  0  0  1  0  0  0  0  0  0
    2.0770   10.8940    5.1390 O   0  0  0  0  0  0  0  0  0  0  0  0
    6.6470   10.1670    8.3400 C   0  0  0  0  0  0  0  0  0  0  0  0
    7.5580   11.0570    8.2600 O   0  0  0  0  0  0  0  0  0  0  0  0
    6.7220    9.2000    9.4370 C   0  0  0  0  0  0  0  0  0  0  0  0
    6.3920    7.8720    9.1330 C   0  0  0  0  0  3  0  0  0  0  0  0
    6.3630    6.9190   10.1740 C   0  0  0  0  0  3  0  0  0  0  0  0
    6.5550    7.3190   11.4600 C   0  0  0  0  0  3  0  0  0  0  0  0
    6.8200    8.6370   11.7910 C   0  0  0  0  0  3  0  0  0  0  0  0
    6.8790    9.6130   10.7750 C   0  0  0  0  0  3  0  0  0  0  0  0
    6.7610    9.7890    5.5260 O   0  0  0  0  0  0  0  0  0  0  0  0
    7.0790    8.8560    5.6260 H   0  0  0  0  0  0  0  0  0  0  0  0
  1  2  1  0  0  0  0
  2  3  2  0  0  0  0
  4  3  1  0  0  0  0
  4  9  1  0  0  0  0
  5  4  2  0  0  0  0
  6  1  2  0  0  0  0
  6  5  1  0  0  0  0
  7  8  1  0  0  0  0
  8  1  1  0  0  0  0
  9 11  1  0  0  0  0
 10  9  2  0  0  0  0
 11 16  1  0  0  0  0
 12 11  2  0  0  0  0
 12 13  1  0  0  0  0
 13 14  2  0  0  0  0
 14 15  1  0  0  0  0
 16 15  2  0  0  0  0
 17 18  1  0  0  0  0
 17  5  1  0  0  0  0
M  END
>  <MODEL>
5

>  <REMARK>
 VINA RESULT:      -4.4      9.057     10.807
  Name = bgox31_4_ligand
  5 active torsions:
  status: ('A' for Active; 'I' for Inactive)
    1  A    between atoms: C_1  and  O_2
    2  A    between atoms: O_2  and  C_3
    3  A    between atoms: C_6  and  C_7
    4  A    between atoms: C_7  and  C_9
    5  A    between atoms: C_15  and  O_16
                            x       y       z     vdW  Elec       q    Type
                         _______ _______ _______ _____ _____    ______ ____

>  <TORSDO>
F 4

$$$$
bgox31_4_ligand
 OpenBabel10092621253D

 18 19  0  0  0  0  0  0  0  0999 V2000
    9.7560    9.2730   10.6450 C   0  0  0  0  0  0  0  0  0  0  0  0
    9.1010   10.4700   10.7550 C   0  0  0  0  0  3  0  0  0  0  0  0
    7.7380   10.6140   10.3090 C   0  0  0  0  0  3  0  0  0  0  0  0
    7.1450    9.4940    9.7110 C   0  0  0  0  0  0  0  0  0  0  0  0
    7.8250    8.2840    9.6300 C   0  0  0  0  0  0  0  0  0  0  0  0
    9.1490    8.1470   10.0830 C   0  0  0  0  0  3  0  0  0  0  0  0
   11.7090    7.9150   10.8580 C   0  0  0  0  0  1  0  0  0  0  0  0
   11.0430    9.1810   11.1130 O   0  0  0  0  0  0  0  0  0  0  0  0
    5.7630    9.6630    9.2280 C   0  0  0  0  0  0  0  0  0  0  0  0
    4.8450    9.6300   10.1130 O   0  0  0  0  0  0  0  0  0  0  0  0
    5.4040   10.0980    7.8760 C   0  0  0  0  0  0  0  0  0  0  0  0
    4.0610   10.4340    7.6560 C   0  0  0  0  0  3  0  0  0  0  0  0
    3.6470   10.7740    6.3500 C   0  0  0  0  0  3  0  0  0  0  0  0
    4.5250   10.6750    5.3170 C   0  0  0  0  0  3  0  0  0  0  0  0
    5.8400   10.2850    5.5020 C   0  0  0  0  0  3  0  0  0  0  0  0
    6.2960    9.9590    6.7950 C   0  0  0  0  0  3  0  0  0  0  0  0
    7.1610    7.1950    9.0390 O   0  0  0  0  0  0  0  0  0  0  0  0
    7.1270    6.3240    9.5080 H   0  0  0  0  0  0  0  0  0  0  0  0
  1  2  1  0  0  0  0
  1  8  1  0  0  0  0
  3  2  2  0  0  0  0
  4  3  1  0  0  0  0
  5  4  2  0  0  0  0
  5  6  1  0  0  0  0
  6  1  2  0  0  0  0
  7  8  1  0  0  0  0
  9  4  1  0  0  0  0
  9 10  2  0  0  0  0
 11  9  1  0  0  0  0
 12 11  1  0  0  0  0
 13 12  2  0  0  0  0
 14 15  2  0  0  0  0
 14 13  1  0  0  0  0
 15 16  1  0  0  0  0
 16 11  2  0  0  0  0
 17 18  1  0  0  0  0
 17  5  1  0  0  0  0
M  END
>  <MODEL>
6

>  <REMARK>
 VINA RESULT:      -4.3      7.543      9.892
  Name = bgox31_4_ligand
  5 active torsions:
  status: ('A' for Active; 'I' for Inactive)
    1  A    between atoms: C_1  and  O_2
    2  A    between atoms: O_2  and  C_3
    3  A    between atoms: C_6  and  C_7
    4  A    between atoms: C_7  and  C_9
    5  A    between atoms: C_15  and  O_16
                            x       y       z     vdW  Elec       q    Type
                         _______ _______ _______ _____ _____    ______ ____

>  <TORSDO>
F 4

$$$$
bgox31_4_ligand
 OpenBabel10092621253D

 18 19  0  0  0  0  0  0  0  0999 V2000
   12.3050    2.5130    7.5760 C   0  0  0  0  0  0  0  0  0  0  0  0
   11.5290    1.4510    7.1970 C   0  0  0  0  0  3  0  0  0  0  0  0
   10.8480    0.6430    8.1780 C   0  0  0  0  0  3  0  0  0  0  0  0
   11.0660    0.9620    9.5250 C   0  0  0  0  0  0  0  0  0  0  0  0
   11.8420    2.0580    9.8820 C   0  0  0  0  0  0  0  0  0  0  0  0
   12.4900    2.8530    8.9180 C   0  0  0  0  0  3  0  0  0  0  0  0
   13.2280    2.5610    5.3740 C   0  0  0  0  0  1  0  0  0  0  0  0
   12.9060    3.2690    6.6020 O   0  0  0  0  0  0  0  0  0  0  0  0
   10.3920    0.1070   10.5190 C   0  0  0  0  0  0  0  0  0  0  0  0
   11.1490   -0.5970   11.2660 O   0  0  0  0  0  0  0  0  0  0  0  0
    8.9710    0.1950   10.8610 C   0  0  0  0  0  0  0  0  0  0  0  0
    8.6490    0.8380   12.0650 C   0  0  0  0  0  3  0  0  0  0  0  0
    7.3020    0.8700   12.4830 C   0  0  0  0  0  3  0  0  0  0  0  0
    6.3580    0.1970   11.7710 C   0  0  0  0  0  3  0  0  0  0  0  0
    6.6640   -0.4980   10.6140 C   0  0  0  0  0  3  0  0  0  0  0  0
    7.9950   -0.5330   10.1530 C   0  0  0  0  0  3  0  0  0  0  0  0
   11.9990    2.3340   11.2510 O   0  0  0  0  0  0  0  0  0  0  0  0
   11.3890    1.9200   11.9120 H   0  0  0  0  0  0  0  0  0  0  0  0
  1  6  1  0  0  0  0
  2  1  2  0  0  0  0
  2  3  1  0  0  0  0
  3  4  2  0  0  0  0
  4  5  1  0  0  0  0
  4  9  1  0  0  0  0
  5 17  1  0  0  0  0
  6  5  2  0  0  0  0
  7  8  1  0  0  0  0
  8  1  1  0  0  0  0
  9 11  1  0  0  0  0
  9 10  2  0  0  0  0
 11 12  1  0  0  0  0
 12 13  2  0  0  0  0
 14 13  1  0  0  0  0
 15 14  2  0  0  0  0
 16 15  1  0  0  0  0
 16 11  2  0  0  0  0
 17 18  1  0  0  0  0
M  END
>  <MODEL>
7

>  <REMARK>
 VINA RESULT:      -4.3      1.612      2.516
  Name = bgox31_4_ligand
  5 active torsions:
  status: ('A' for Active; 'I' for Inactive)
    1  A    between atoms: C_1  and  O_2
    2  A    between atoms: O_2  and  C_3
    3  A    between atoms: C_6  and  C_7
    4  A    between atoms: C_7  and  C_9
    5  A    between atoms: C_15  and  O_16
                            x       y       z     vdW  Elec       q    Type
                         _______ _______ _______ _____ _____    ______ ____

>  <TORSDO>
F 4

$$$$
bgox31_4_ligand
 OpenBabel10092621253D

 18 19  0  0  0  0  0  0  0  0999 V2000
    7.5440    8.5590   10.7280 C   0  0  0  0  0  0  0  0  0  0  0  0
    6.6580    7.8750    9.9410 C   0  0  0  0  0  3  0  0  0  0  0  0
    6.2110    8.4170    8.6820 C   0  0  0  0  0  3  0  0  0  0  0  0
    6.6790    9.6930    8.3390 C   0  0  0  0  0  0  0  0  0  0  0  0
    7.5940   10.3580    9.1460 C   0  0  0  0  0  0  0  0  0  0  0  0
    8.0400    9.8140   10.3650 C   0  0  0  0  0  3  0  0  0  0  0  0
    6.9090    7.6770   12.8540 C   0  0  0  0  0  1  0  0  0  0  0  0
    7.9630    7.9840   11.9010 O   0  0  0  0  0  0  0  0  0  0  0  0
    6.1880   10.2520    7.0670 C   0  0  0  0  0  0  0  0  0  0  0  0
    7.0580   10.4290    6.1520 O   0  0  0  0  0  0  0  0  0  0  0  0
    4.7730   10.3820    6.7100 C   0  0  0  0  0  0  0  0  0  0  0  0
    4.4390   10.1750    5.3640 C   0  0  0  0  0  3  0  0  0  0  0  0
    3.1050   10.3760    4.9520 C   0  0  0  0  0  3  0  0  0  0  0  0
    2.1920   10.8600    5.8360 C   0  0  0  0  0  3  0  0  0  0  0  0
    2.5140   11.1320    7.1550 C   0  0  0  0  0  3  0  0  0  0  0  0
    3.8320   10.9220    7.6080 C   0  0  0  0  0  3  0  0  0  0  0  0
    8.0400   11.6240    8.7290 O   0  0  0  0  0  0  0  0  0  0  0  0
    7.6310   12.0560    7.9380 H   0  0  0  0  0  0  0  0  0  0  0  0
  1  8  1  0  0  0  0
  2  1  2  0  0  0  0
  3  2  1  0  0  0  0
  4  3  2  0  0  0  0
  4  5  1  0  0  0  0
  5  6  2  0  0  0  0
  6  1  1  0  0  0  0
  8  7  1  0  0  0  0
  9  4  1  0  0  0  0
 10  9  2  0  0  0  0
 11  9  1  0  0  0  0
 11 16  1  0  0  0  0
 12 11  2  0  0  0  0
 13 12  1  0  0  0  0
 13 14  2  0  0  0  0
 14 15  1  0  0  0  0
 15 16  2  0  0  0  0
 17  5  1  0  0  0  0
 18 17  1  0  0  0  0
M  END
>  <MODEL>
8

>  <REMARK>
 VINA RESULT:      -4.2      8.653     10.774
  Name = bgox31_4_ligand
  5 active torsions:
  status: ('A' for Active; 'I' for Inactive)
    1  A    between atoms: C_1  and  O_2
    2  A    between atoms: O_2  and  C_3
    3  A    between atoms: C_6  and  C_7
    4  A    between atoms: C_7  and  C_9
    5  A    between atoms: C_15  and  O_16
                            x       y       z     vdW  Elec       q    Type
                         _______ _______ _______ _____ _____    ______ ____

>  <TORSDO>
F 4

$$$$
bgox31_4_ligand
 OpenBabel10092621253D

 18 19  0  0  0  0  0  0  0  0999 V2000
    8.4320    0.3420   10.5450 C   0  0  0  0  0  0  0  0  0  0  0  0
    7.2320   -0.1410   10.0980 C   0  0  0  0  0  3  0  0  0  0  0  0
    6.1610   -0.4350   11.0170 C   0  0  0  0  0  3  0  0  0  0  0  0
    6.4300   -0.2600   12.3810 C   0  0  0  0  0  0  0  0  0  0  0  0
    7.6500    0.2510   12.8080 C   0  0  0  0  0  0  0  0  0  0  0  0
    8.6840    0.5530   11.9030 C   0  0  0  0  0  3  0  0  0  0  0  0
   10.7230    0.9080   10.1800 C   0  0  0  0  0  1  0  0  0  0  0  0
    9.4070    0.6360    9.6260 O   0  0  0  0  0  0  0  0  0  0  0  0
    5.3400   -0.5980   13.3130 C   0  0  0  0  0  0  0  0  0  0  0  0
    5.5810   -1.5240   14.1570 O   0  0  0  0  0  0  0  0  0  0  0  0
    4.1250    0.2000   13.4940 C   0  0  0  0  0  0  0  0  0  0  0  0
    4.2000    1.2710   14.3950 C   0  0  0  0  0  3  0  0  0  0  0  0
    3.0320    2.0150   14.6710 C   0  0  0  0  0  3  0  0  0  0  0  0
    1.8430    1.6250   14.1410 C   0  0  0  0  0  3  0  0  0  0  0  0
    1.7340    0.5320   13.2980 C   0  0  0  0  0  3  0  0  0  0  0  0
    2.8820   -0.2220   12.9820 C   0  0  0  0  0  3  0  0  0  0  0  0
    7.8430    0.4240   14.1890 O   0  0  0  0  0  0  0  0  0  0  0  0
    8.3580   -0.2470   14.7040 H   0  0  0  0  0  0  0  0  0  0  0  0
  1  6  1  0  0  0  0
  2  1  2  0  0  0  0
  2  3  1  0  0  0  0
  3  4  2  0  0  0  0
  4  5  1  0  0  0  0
  4  9  1  0  0  0  0
  5 17  1  0  0  0  0
  6  5  2  0  0  0  0
  8  7  1  0  0  0  0
  8  1  1  0  0  0  0
  9 11  1  0  0  0  0
  9 10  2  0  0  0  0
 11 12  1  0  0  0  0
 12 13  2  0  0  0  0
 14 13  1  0  0  0  0
 15 14  2  0  0  0  0
 16 15  1  0  0  0  0
 16 11  2  0  0  0  0
 17 18  1  0  0  0  0
M  END
>  <MODEL>
9

>  <REMARK>
 VINA RESULT:      -4.1      4.005      6.420
  Name = bgox31_4_ligand
  5 active torsions:
  status: ('A' for Active; 'I' for Inactive)
    1  A    between atoms: C_1  and  O_2
    2  A    between atoms: O_2  and  C_3
    3  A    between atoms: C_6  and  C_7
    4  A    between atoms: C_7  and  C_9
    5  A    between atoms: C_15  and  O_16
                            x       y       z     vdW  Elec       q    Type
                         _______ _______ _______ _____ _____    ______ ____

>  <TORSDO>
F 4

$$$$
