bgox31_3_ligand
     RDKit          3D

 29 30  0  0  0  0  0  0  0  0999 V2000
    1.3150   -1.4400  -10.2460 C   0  0  1  0  0  0  0  0  0  0  0  0
    0.2620   -0.5340  -10.0770 O   0  0  0  0  0  0  0  0  0  0  0  0
   -0.0830   -0.1000   -8.7840 C   0  0  0  0  0  0  0  0  0  0  0  0
   -1.2550    0.5840   -8.5960 C   0  0  0  0  0  0  0  0  0  0  0  0
   -1.6140    1.0240   -7.3270 C   0  0  0  0  0  0  0  0  0  0  0  0
   -0.8000    0.8390   -6.2430 C   0  0  0  0  0  0  0  0  0  0  0  0
   -1.1900    1.2870   -4.8650 C   0  0  0  0  0  0  0  0  0  0  0  0
   -0.9600    0.5600   -3.9090 O   0  0  0  0  0  0  0  0  0  0  0  0
   -1.8760    2.6020   -4.6070 C   0  0  0  0  0  0  0  0  0  0  0  0
   -2.9080    2.6560   -3.7070 C   0  0  0  0  0  0  0  0  0  0  0  0
   -3.5390    3.8580   -3.5080 C   0  0  0  0  0  0  0  0  0  0  0  0
   -3.0540    4.9800   -4.0970 C   0  0  0  0  0  0  0  0  0  0  0  0
   -1.9400    4.9610   -4.9670 C   0  0  0  0  0  0  0  0  0  0  0  0
   -1.3890    3.7180   -5.2260 C   0  0  0  0  0  0  0  0  0  0  0  0
    0.4110    0.1540   -6.4540 C   0  0  0  0  0  0  0  0  0  0  0  0
    1.1710   -0.0800   -5.3110 O   0  0  0  0  0  0  0  0  0  0  0  0
    0.7620   -0.3160   -7.6710 C   0  0  0  0  0  0  0  0  0  0  0  0
    1.6859   -1.7591   -9.2608 H   0  0  0  0  0  0  0  0  0  0  0  0
    0.9577   -2.3174  -10.8050 H   0  0  0  0  0  0  0  0  0  0  0  0
    2.1292   -0.9557  -10.8050 H   0  0  0  0  0  0  0  0  0  0  0  0
   -1.9148    0.7859   -9.4527 H   0  0  0  0  0  0  0  0  0  0  0  0
   -2.5787    1.5347   -7.1908 H   0  0  0  0  0  0  0  0  0  0  0  0
   -3.2231    1.7569   -3.1571 H   0  0  0  0  0  0  0  0  0  0  0  0
   -4.4355    3.9119   -2.8728 H   0  0  0  0  0  0  0  0  0  0  0  0
   -3.5466    5.9414   -3.8895 H   0  0  0  0  0  0  0  0  0  0  0  0
   -1.5343    5.8813   -5.4126 H   0  0  0  0  0  0  0  0  0  0  0  0
   -0.5530    3.6282   -5.9353 H   0  0  0  0  0  0  0  0  0  0  0  0
    2.0358   -0.5568   -5.3806 H   0  0  0  0  0  0  0  0  0  0  0  0
    1.7057   -0.8671   -7.7961 H   0  0  0  0  0  0  0  0  0  0  0  0
  2  1  1  0
  3  2  1  0
  4  3  1  0
  5  4  2  0
  6  5  1  0
  7  6  1  0
  8  7  2  0
  9  7  1  0
 10  9  2  0
 11 10  1  0
 12 11  2  0
 13 12  1  0
 14 13  2  0
 14  9  1  0
 15  6  2  0
 16 15  1  0
 17 15  1  0
 17  3  2  0
  1 18  1  1
  1 19  1  0
  1 20  1  0
  4 21  1  0
  5 22  1  0
 10 23  1  0
 11 24  1  0
 12 25  1  0
 13 26  1  0
 14 27  1  0
 16 28  1  0
 17 29  1  0
M  END
