ox3_orig_f8_ligand
     RDKit          3D

 29 30  0  0  0  0  0  0  0  0999 V2000
   -4.2936    1.3532  -12.6318 C   0  0  0  0  0  0  0  0  0  0  0  0
   -3.3292    0.6419  -11.8557 O   0  0  0  0  0  0  0  0  0  0  0  0
   -3.5794    0.3559  -10.5356 C   0  0  0  0  0  0  0  0  0  0  0  0
   -4.7144    0.8247   -9.8714 C   0  0  0  0  0  0  0  0  0  0  0  0
   -4.9170    0.5086   -8.5374 C   0  0  0  0  0  0  0  0  0  0  0  0
   -3.9931   -0.2722   -7.8495 C   0  0  0  0  0  0  0  0  0  0  0  0
   -4.2047   -0.6311   -6.4058 C   0  0  0  0  0  0  0  0  0  0  0  0
   -3.4275   -1.3974   -5.8878 O   0  0  0  0  0  0  0  0  0  0  0  0
   -5.3458   -0.1105   -5.6129 C   0  0  0  0  0  0  0  0  0  0  0  0
   -5.6548    1.2424   -5.5890 C   0  0  0  0  0  0  0  0  0  0  0  0
   -6.7023    1.7016   -4.8120 C   0  0  0  0  0  0  0  0  0  0  0  0
   -7.4873    0.8239   -4.0909 C   0  0  0  0  0  0  0  0  0  0  0  0
   -7.1775   -0.5255   -4.0960 C   0  0  0  0  0  0  0  0  0  0  0  0
   -6.0944   -0.9969   -4.8389 C   0  0  0  0  0  0  0  0  0  0  0  0
   -2.8682   -0.7436   -8.5257 C   0  0  0  0  0  0  0  0  0  0  0  0
   -1.9702   -1.5294   -7.8668 O   0  0  0  0  0  0  0  0  0  0  0  0
   -2.6736   -0.4248   -9.8640 C   0  0  0  0  0  0  0  0  0  0  0  0
   -5.2685    0.8493  -12.5566 H   0  0  0  0  0  0  0  0  0  0  0  0
   -4.3824    2.3822  -12.2529 H   0  0  0  0  0  0  0  0  0  0  0  0
   -3.9729    1.3763  -13.6837 H   0  0  0  0  0  0  0  0  0  0  0  0
   -5.4480    1.4452  -10.4070 H   0  0  0  0  0  0  0  0  0  0  0  0
   -5.8142    0.8775   -8.0187 H   0  0  0  0  0  0  0  0  0  0  0  0
   -5.0652    1.9509   -6.1894 H   0  0  0  0  0  0  0  0  0  0  0  0
   -6.9130    2.7802   -4.7677 H   0  0  0  0  0  0  0  0  0  0  0  0
   -8.3505    1.1933   -3.5178 H   0  0  0  0  0  0  0  0  0  0  0  0
   -7.7882   -1.2295   -3.5116 H   0  0  0  0  0  0  0  0  0  0  0  0
   -5.8318   -2.0649   -4.8143 H   0  0  0  0  0  0  0  0  0  0  0  0
   -1.1689   -1.8683   -8.3391 H   0  0  0  0  0  0  0  0  0  0  0  0
   -1.7844   -0.8023  -10.3901 H   0  0  0  0  0  0  0  0  0  0  0  0
  2  1  1  0
  3  2  1  0
  4  3  1  0
  5  4  2  0
  6  5  1  0
  7  6  1  0
  8  7  2  0
  9  7  1  0
 10  9  2  0
 11 10  1  0
 12 11  2  0
 13 12  1  0
 14 13  2  0
 14  9  1  0
 15  6  2  0
 16 15  1  0
 17 15  1  0
 17  3  2  0
  1 18  1  0
  1 19  1  0
  1 20  1  0
  4 21  1  0
  5 22  1  0
 10 23  1  0
 11 24  1  0
 12 25  1  0
 13 26  1  0
 14 27  1  0
 16 28  1  0
 17 29  1  0
M  END
$$$$
