ox3_orig_f8_ligand
 OpenBabel10092621223D

 18 19  0  0  0  0  0  0  0  0999 V2000
   -6.3620    3.5810   -4.1650 C   0  0  0  0  0  0  0  0  0  0  0  0
   -7.0510    2.8470   -5.1330 C   0  0  0  0  0  3  0  0  0  0  0  0
   -6.8920    1.4720   -5.2040 C   0  0  0  0  0  3  0  0  0  0  0  0
   -6.0510    0.8120   -4.3120 C   0  0  0  0  0  0  0  0  0  0  0  0
   -5.3600    1.5570   -3.3560 C   0  0  0  0  0  0  0  0  0  0  0  0
   -5.5220    2.9350   -3.2940 C   0  0  0  0  0  3  0  0  0  0  0  0
   -5.4850    5.7010   -3.3680 C   0  0  0  0  0  1  0  0  0  0  0  0
   -6.4850    4.9440   -4.0500 O   0  0  0  0  0  0  0  0  0  0  0  0
   -5.8620   -0.6760   -4.3840 C   0  0  0  0  0  0  0  0  0  0  0  0
   -6.1140   -1.3320   -3.4020 O   0  0  0  0  0  0  0  0  0  0  0  0
   -5.3460   -1.3580   -5.5970 C   0  0  0  0  0  0  0  0  0  0  0  0
   -6.0150   -2.4340   -6.1630 C   0  0  0  0  0  3  0  0  0  0  0  0
   -5.4910   -3.0720   -7.2720 C   0  0  0  0  0  3  0  0  0  0  0  0
   -4.3270   -2.6220   -7.8640 C   0  0  0  0  0  3  0  0  0  0  0  0
   -3.6440   -1.5600   -7.2980 C   0  0  0  0  0  3  0  0  0  0  0  0
   -4.1380   -0.9360   -6.1500 C   0  0  0  0  0  3  0  0  0  0  0  0
   -4.5170    0.9220   -2.4950 O   0  0  0  0  0  0  0  0  0  0  0  0
   -3.5400    0.9460   -2.6510 H   0  0  0  0  0  0  0  0  0  0  0  0
  1  8  1  0  0  0  0
  1  6  1  0  0  0  0
  2  1  2  0  0  0  0
  3  2  1  0  0  0  0
  3  4  2  0  0  0  0
  4  5  1  0  0  0  0
  5  6  2  0  0  0  0
  5 17  1  0  0  0  0
  8  7  1  0  0  0  0
  9  4  1  0  0  0  0
  9 10  2  0  0  0  0
 11  9  1  0  0  0  0
 12 11  2  0  0  0  0
 13 12  1  0  0  0  0
 14 15  1  0  0  0  0
 14 13  2  0  0  0  0
 15 16  2  0  0  0  0
 16 11  1  0  0  0  0
 18 17  1  0  0  0  0
M  END
>  <MODEL>
1

>  <REMARK>
 VINA RESULT:      -4.6      0.000      0.000
  Name = ox3_orig_f8_ligand
  5 active torsions:
  status: ('A' for Active; 'I' for Inactive)
    1  A    between atoms: C_1  and  O_2
    2  A    between atoms: O_2  and  C_3
    3  A    between atoms: C_6  and  C_7
    4  A    between atoms: C_7  and  C_9
    5  A    between atoms: C_15  and  O_16
                            x       y       z     vdW  Elec       q    Type
                         _______ _______ _______ _____ _____    ______ ____

>  <TORSDO>
F 4

$$$$
ox3_orig_f8_ligand
 OpenBabel10092621223D

 18 19  0  0  0  0  0  0  0  0999 V2000
   -3.1800   -0.4480   -9.8170 C   0  0  0  0  0  0  0  0  0  0  0  0
   -4.5360   -0.1320   -9.7150 C   0  0  0  0  0  3  0  0  0  0  0  0
   -5.1440   -0.0750   -8.4710 C   0  0  0  0  0  3  0  0  0  0  0  0
   -4.4100   -0.3270   -7.3150 C   0  0  0  0  0  0  0  0  0  0  0  0
   -3.0580   -0.6520   -7.4290 C   0  0  0  0  0  0  0  0  0  0  0  0
   -2.4580   -0.7100   -8.6810 C   0  0  0  0  0  3  0  0  0  0  0  0
   -2.3930   -1.7670  -11.6980 C   0  0  0  0  0  1  0  0  0  0  0  0
   -2.5280   -0.5160  -11.0240 O   0  0  0  0  0  0  0  0  0  0  0  0
   -5.0580   -0.2780   -5.9610 C   0  0  0  0  0  0  0  0  0  0  0  0
   -5.4630   -1.3120   -5.4850 O   0  0  0  0  0  0  0  0  0  0  0  0
   -5.2490    0.9880   -5.2120 C   0  0  0  0  0  0  0  0  0  0  0  0
   -5.0460    2.2230   -5.8120 C   0  0  0  0  0  3  0  0  0  0  0  0
   -5.1970    3.3850   -5.0790 C   0  0  0  0  0  3  0  0  0  0  0  0
   -5.5990    3.3420   -3.7590 C   0  0  0  0  0  3  0  0  0  0  0  0
   -5.7890    2.1150   -3.1460 C   0  0  0  0  0  3  0  0  0  0  0  0
   -5.5940    0.9320   -3.8620 C   0  0  0  0  0  3  0  0  0  0  0  0
   -2.3380   -0.9240   -6.3050 O   0  0  0  0  0  0  0  0  0  0  0  0
   -2.4590   -0.3700   -5.4940 H   0  0  0  0  0  0  0  0  0  0  0  0
  1  2  2  0  0  0  0
  1  6  1  0  0  0  0
  2  3  1  0  0  0  0
  3  4  2  0  0  0  0
  4  9  1  0  0  0  0
  5  4  1  0  0  0  0
  5 17  1  0  0  0  0
  6  5  2  0  0  0  0
  7  8  1  0  0  0  0
  8  1  1  0  0  0  0
  9 10  2  0  0  0  0
  9 11  1  0  0  0  0
 11 16  1  0  0  0  0
 12 11  2  0  0  0  0
 12 13  1  0  0  0  0
 13 14  2  0  0  0  0
 14 15  1  0  0  0  0
 16 15  2  0  0  0  0
 17 18  1  0  0  0  0
M  END
>  <MODEL>
2

>  <REMARK>
 VINA RESULT:      -4.4      3.051      6.121
  Name = ox3_orig_f8_ligand
  5 active torsions:
  status: ('A' for Active; 'I' for Inactive)
    1  A    between atoms: C_1  and  O_2
    2  A    between atoms: O_2  and  C_3
    3  A    between atoms: C_6  and  C_7
    4  A    between atoms: C_7  and  C_9
    5  A    between atoms: C_15  and  O_16
                            x       y       z     vdW  Elec       q    Type
                         _______ _______ _______ _____ _____    ______ ____

>  <TORSDO>
F 4

$$$$
ox3_orig_f8_ligand
 OpenBabel10092621223D

 18 19  0  0  0  0  0  0  0  0999 V2000
   -7.8910    0.4400   -1.8190 C   0  0  0  0  0  0  0  0  0  0  0  0
   -8.4430    0.4560   -3.1020 C   0  0  0  0  0  3  0  0  0  0  0  0
   -7.6210    0.6030   -4.2090 C   0  0  0  0  0  3  0  0  0  0  0  0
   -6.2440    0.7310   -4.0530 C   0  0  0  0  0  0  0  0  0  0  0  0
   -5.7050    0.7250   -2.7660 C   0  0  0  0  0  0  0  0  0  0  0  0
   -6.5360    0.5800   -1.6620 C   0  0  0  0  0  3  0  0  0  0  0  0
   -8.1050    0.5720    0.5960 C   0  0  0  0  0  1  0  0  0  0  0  0
   -8.6590    0.2950   -0.6900 O   0  0  0  0  0  0  0  0  0  0  0  0
   -5.3430    0.9010   -5.2430 C   0  0  0  0  0  0  0  0  0  0  0  0
   -5.0550    2.0230   -5.5850 O   0  0  0  0  0  0  0  0  0  0  0  0
   -4.8290   -0.2490   -6.0260 C   0  0  0  0  0  0  0  0  0  0  0  0
   -3.6780   -0.1460   -6.7940 C   0  0  0  0  0  3  0  0  0  0  0  0
   -3.2430   -1.2240   -7.5430 C   0  0  0  0  0  3  0  0  0  0  0  0
   -3.9120   -2.4310   -7.5000 C   0  0  0  0  0  3  0  0  0  0  0  0
   -5.0700   -2.5400   -6.7500 C   0  0  0  0  0  3  0  0  0  0  0  0
   -5.5460   -1.4440   -6.0260 C   0  0  0  0  0  3  0  0  0  0  0  0
   -4.3610    0.8730   -2.6030 O   0  0  0  0  0  0  0  0  0  0  0  0
   -3.9010    0.4230   -1.8510 H   0  0  0  0  0  0  0  0  0  0  0  0
  1  6  1  0  0  0  0
  1  8  1  0  0  0  0
  2  1  2  0  0  0  0
  3  4  2  0  0  0  0
  3  2  1  0  0  0  0
  4  5  1  0  0  0  0
  5 17  1  0  0  0  0
  5  6  2  0  0  0  0
  8  7  1  0  0  0  0
  9  4  1  0  0  0  0
 10  9  2  0  0  0  0
 11 16  1  0  0  0  0
 11  9  1  0  0  0  0
 12 11  2  0  0  0  0
 13 14  2  0  0  0  0
 13 12  1  0  0  0  0
 14 15  1  0  0  0  0
 15 16  2  0  0  0  0
 17 18  1  0  0  0  0
M  END
>  <MODEL>
3

>  <REMARK>
 VINA RESULT:      -4.3      2.206      3.224
  Name = ox3_orig_f8_ligand
  5 active torsions:
  status: ('A' for Active; 'I' for Inactive)
    1  A    between atoms: C_1  and  O_2
    2  A    between atoms: O_2  and  C_3
    3  A    between atoms: C_6  and  C_7
    4  A    between atoms: C_7  and  C_9
    5  A    between atoms: C_15  and  O_16
                            x       y       z     vdW  Elec       q    Type
                         _______ _______ _______ _____ _____    ______ ____

>  <TORSDO>
F 4

$$$$
ox3_orig_f8_ligand
 OpenBabel10092621223D

 18 19  0  0  0  0  0  0  0  0999 V2000
   -7.4860   -2.1710   -3.7220 C   0  0  0  0  0  0  0  0  0  0  0  0
   -7.7230   -2.0660   -5.0940 C   0  0  0  0  0  3  0  0  0  0  0  0
   -6.9730   -1.1910   -5.8630 C   0  0  0  0  0  3  0  0  0  0  0  0
   -5.9770   -0.4140   -5.2790 C   0  0  0  0  0  0  0  0  0  0  0  0
   -5.7560   -0.5190   -3.9050 C   0  0  0  0  0  0  0  0  0  0  0  0
   -6.5140   -1.3960   -3.1410 C   0  0  0  0  0  3  0  0  0  0  0  0
   -7.7600   -3.2850   -1.5810 C   0  0  0  0  0  1  0  0  0  0  0  0
   -8.1980   -3.0240   -2.9150 O   0  0  0  0  0  0  0  0  0  0  0  0
   -5.1630    0.5460   -6.0980 C   0  0  0  0  0  0  0  0  0  0  0  0
   -5.1210    1.7010   -5.7490 O   0  0  0  0  0  0  0  0  0  0  0  0
   -4.4460    0.1360   -7.3310 C   0  0  0  0  0  0  0  0  0  0  0  0
   -5.0100    0.3060   -8.5870 C   0  0  0  0  0  3  0  0  0  0  0  0
   -4.3340   -0.1190   -9.7160 C   0  0  0  0  0  3  0  0  0  0  0  0
   -3.0710   -0.6700   -9.6180 C   0  0  0  0  0  3  0  0  0  0  0  0
   -2.5060   -0.8570   -8.3690 C   0  0  0  0  0  3  0  0  0  0  0  0
   -3.1990   -0.4760   -7.2180 C   0  0  0  0  0  3  0  0  0  0  0  0
   -4.7990    0.2550   -3.3200 O   0  0  0  0  0  0  0  0  0  0  0  0
   -4.6160    0.1680   -2.3510 H   0  0  0  0  0  0  0  0  0  0  0  0
  1  6  1  0  0  0  0
  1  8  1  0  0  0  0
  2  1  2  0  0  0  0
  3  4  2  0  0  0  0
  3  2  1  0  0  0  0
  4  5  1  0  0  0  0
  5 17  1  0  0  0  0
  5  6  2  0  0  0  0
  8  7  1  0  0  0  0
  9 10  2  0  0  0  0
  9  4  1  0  0  0  0
 11 16  1  0  0  0  0
 11  9  1  0  0  0  0
 12 11  2  0  0  0  0
 13 14  2  0  0  0  0
 13 12  1  0  0  0  0
 14 15  1  0  0  0  0
 15 16  2  0  0  0  0
 17 18  1  0  0  0  0
M  END
>  <MODEL>
4

>  <REMARK>
 VINA RESULT:      -4.2      2.705      4.355
  Name = ox3_orig_f8_ligand
  5 active torsions:
  status: ('A' for Active; 'I' for Inactive)
    1  A    between atoms: C_1  and  O_2
    2  A    between atoms: O_2  and  C_3
    3  A    between atoms: C_6  and  C_7
    4  A    between atoms: C_7  and  C_9
    5  A    between atoms: C_15  and  O_16
                            x       y       z     vdW  Elec       q    Type
                         _______ _______ _______ _____ _____    ______ ____

>  <TORSDO>
F 4

$$$$
ox3_orig_f8_ligand
 OpenBabel10092621223D

 18 19  0  0  0  0  0  0  0  0999 V2000
    1.7300    6.5240   -5.8620 C   0  0  0  0  0  0  0  0  0  0  0  0
    1.8500    7.5610   -4.9350 C   0  0  0  0  0  3  0  0  0  0  0  0
    1.9150    7.2780   -3.5800 C   0  0  0  0  0  3  0  0  0  0  0  0
    1.8660    5.9610   -3.1320 C   0  0  0  0  0  0  0  0  0  0  0  0
    1.7350    4.9330   -4.0660 C   0  0  0  0  0  0  0  0  0  0  0  0
    1.6680    5.2260   -5.4220 C   0  0  0  0  0  3  0  0  0  0  0  0
    1.9970    5.7090   -8.1340 C   0  0  0  0  0  1  0  0  0  0  0  0
    1.6630    6.7500   -7.2150 O   0  0  0  0  0  0  0  0  0  0  0  0
    1.9250    5.6390   -1.6660 C   0  0  0  0  0  0  0  0  0  0  0  0
    2.8880    5.0390   -1.2520 O   0  0  0  0  0  0  0  0  0  0  0  0
    0.8350    5.9970   -0.7250 C   0  0  0  0  0  0  0  0  0  0  0  0
   -0.4830    6.0960   -1.1480 C   0  0  0  0  0  3  0  0  0  0  0  0
   -1.4720    6.4660   -0.2560 C   0  0  0  0  0  3  0  0  0  0  0  0
   -1.1770    6.6930    1.0740 C   0  0  0  0  0  3  0  0  0  0  0  0
    0.1360    6.6120    1.5020 C   0  0  0  0  0  3  0  0  0  0  0  0
    1.1520    6.2850    0.6010 C   0  0  0  0  0  3  0  0  0  0  0  0
    1.6630    3.6420   -3.6360 O   0  0  0  0  0  0  0  0  0  0  0  0
    2.3120    2.9720   -3.9680 H   0  0  0  0  0  0  0  0  0  0  0  0
  1  6  2  0  0  0  0
  1  2  1  0  0  0  0
  2  3  2  0  0  0  0
  3  4  1  0  0  0  0
  4  9  1  0  0  0  0
  5 17  1  0  0  0  0
  5  4  2  0  0  0  0
  6  5  1  0  0  0  0
  7  8  1  0  0  0  0
  8  1  1  0  0  0  0
  9 10  2  0  0  0  0
  9 11  1  0  0  0  0
 11 16  1  0  0  0  0
 12 11  2  0  0  0  0
 12 13  1  0  0  0  0
 13 14  2  0  0  0  0
 14 15  1  0  0  0  0
 16 15  2  0  0  0  0
 18 17  1  0  0  0  0
M  END
>  <MODEL>
5

>  <REMARK>
 VINA RESULT:      -4.1      8.573     10.312
  Name = ox3_orig_f8_ligand
  5 active torsions:
  status: ('A' for Active; 'I' for Inactive)
    1  A    between atoms: C_1  and  O_2
    2  A    between atoms: O_2  and  C_3
    3  A    between atoms: C_6  and  C_7
    4  A    between atoms: C_7  and  C_9
    5  A    between atoms: C_15  and  O_16
                            x       y       z     vdW  Elec       q    Type
                         _______ _______ _______ _____ _____    ______ ____

>  <TORSDO>
F 4

$$$$
ox3_orig_f8_ligand
 OpenBabel10092621223D

 18 19  0  0  0  0  0  0  0  0999 V2000
   -6.1810    5.0240   -4.3590 C   0  0  0  0  0  0  0  0  0  0  0  0
   -5.4610    4.2320   -5.2550 C   0  0  0  0  0  3  0  0  0  0  0  0
   -5.1840    2.9090   -4.9460 C   0  0  0  0  0  3  0  0  0  0  0  0
   -5.6240    2.3590   -3.7450 C   0  0  0  0  0  0  0  0  0  0  0  0
   -6.3330    3.1630   -2.8520 C   0  0  0  0  0  0  0  0  0  0  0  0
   -6.6040    4.4880   -3.1690 C   0  0  0  0  0  3  0  0  0  0  0  0
   -5.6200    7.1270   -5.4370 C   0  0  0  0  0  1  0  0  0  0  0  0
   -6.4840    6.3380   -4.6180 O   0  0  0  0  0  0  0  0  0  0  0  0
   -5.3220    0.9310   -3.3920 C   0  0  0  0  0  0  0  0  0  0  0  0
   -4.6650    0.7140   -2.4020 O   0  0  0  0  0  0  0  0  0  0  0  0
   -5.7690   -0.2100   -4.2280 C   0  0  0  0  0  0  0  0  0  0  0  0
   -6.9070   -0.9390   -3.9120 C   0  0  0  0  0  3  0  0  0  0  0  0
   -7.2780   -2.0200   -4.6900 C   0  0  0  0  0  3  0  0  0  0  0  0
   -6.5580   -2.3600   -5.8180 C   0  0  0  0  0  3  0  0  0  0  0  0
   -5.4140   -1.6490   -6.1340 C   0  0  0  0  0  3  0  0  0  0  0  0
   -5.0010   -0.5850   -5.3300 C   0  0  0  0  0  3  0  0  0  0  0  0
   -6.7470    2.6400   -1.6640 O   0  0  0  0  0  0  0  0  0  0  0  0
   -6.5730    1.6880   -1.4540 H   0  0  0  0  0  0  0  0  0  0  0  0
  1  6  1  0  0  0  0
  2  3  1  0  0  0  0
  2  1  2  0  0  0  0
  3  4  2  0  0  0  0
  4  9  1  0  0  0  0
  4  5  1  0  0  0  0
  5 17  1  0  0  0  0
  6  5  2  0  0  0  0
  7  8  1  0  0  0  0
  8  1  1  0  0  0  0
  9 10  2  0  0  0  0
 11 12  1  0  0  0  0
 11  9  1  0  0  0  0
 13 12  2  0  0  0  0
 14 13  1  0  0  0  0
 15 14  2  0  0  0  0
 15 16  1  0  0  0  0
 16 11  2  0  0  0  0
 17 18  1  0  0  0  0
M  END
>  <MODEL>
6

>  <REMARK>
 VINA RESULT:      -4.0      1.516      2.275
  Name = ox3_orig_f8_ligand
  5 active torsions:
  status: ('A' for Active; 'I' for Inactive)
    1  A    between atoms: C_1  and  O_2
    2  A    between atoms: O_2  and  C_3
    3  A    between atoms: C_6  and  C_7
    4  A    between atoms: C_7  and  C_9
    5  A    between atoms: C_15  and  O_16
                            x       y       z     vdW  Elec       q    Type
                         _______ _______ _______ _____ _____    ______ ____

>  <TORSDO>
F 4

$$$$
ox3_orig_f8_ligand
 OpenBabel10092621223D

 18 19  0  0  0  0  0  0  0  0999 V2000
   -4.7650   -0.6040   -6.0480 C   0  0  0  0  0  0  0  0  0  0  0  0
   -5.5270   -1.7670   -6.1750 C   0  0  0  0  0  3  0  0  0  0  0  0
   -5.0800   -2.8060   -6.9760 C   0  0  0  0  0  3  0  0  0  0  0  0
   -3.8690   -2.7020   -7.6540 C   0  0  0  0  0  0  0  0  0  0  0  0
   -3.1200   -1.5320   -7.5280 C   0  0  0  0  0  0  0  0  0  0  0  0
   -3.5780   -0.4940   -6.7260 C   0  0  0  0  0  3  0  0  0  0  0  0
   -5.5320    0.2410   -3.9040 C   0  0  0  0  0  1  0  0  0  0  0  0
   -5.1610    0.4540   -5.2670 O   0  0  0  0  0  0  0  0  0  0  0  0
   -3.3760   -3.8160   -8.5330 C   0  0  0  0  0  0  0  0  0  0  0  0
   -3.4130   -3.6580   -9.7290 O   0  0  0  0  0  0  0  0  0  0  0  0
   -2.8850   -5.1060   -7.9880 C   0  0  0  0  0  0  0  0  0  0  0  0
   -3.7590   -6.0610   -7.4880 C   0  0  0  0  0  3  0  0  0  0  0  0
   -3.2700   -7.2390   -6.9530 C   0  0  0  0  0  3  0  0  0  0  0  0
   -1.9160   -7.5070   -6.9530 C   0  0  0  0  0  3  0  0  0  0  0  0
   -1.0350   -6.5550   -7.4350 C   0  0  0  0  0  3  0  0  0  0  0  0
   -1.5120   -5.3410   -7.9350 C   0  0  0  0  0  3  0  0  0  0  0  0
   -1.9450   -1.4120   -8.2070 O   0  0  0  0  0  0  0  0  0  0  0  0
   -1.0880   -1.6050   -7.7510 H   0  0  0  0  0  0  0  0  0  0  0  0
  1  8  1  0  0  0  0
  2  1  1  0  0  0  0
  3  2  2  0  0  0  0
  4  5  2  0  0  0  0
  4  3  1  0  0  0  0
  5  6  1  0  0  0  0
  6  1  2  0  0  0  0
  8  7  1  0  0  0  0
  9 11  1  0  0  0  0
  9  4  1  0  0  0  0
 10  9  2  0  0  0  0
 11 16  2  0  0  0  0
 11 12  1  0  0  0  0
 12 13  2  0  0  0  0
 13 14  1  0  0  0  0
 15 14  2  0  0  0  0
 16 15  1  0  0  0  0
 17 18  1  0  0  0  0
 17  5  1  0  0  0  0
M  END
>  <MODEL>
7

>  <REMARK>
 VINA RESULT:      -4.0      3.615      5.449
  Name = ox3_orig_f8_ligand
  5 active torsions:
  status: ('A' for Active; 'I' for Inactive)
    1  A    between atoms: C_1  and  O_2
    2  A    between atoms: O_2  and  C_3
    3  A    between atoms: C_6  and  C_7
    4  A    between atoms: C_7  and  C_9
    5  A    between atoms: C_15  and  O_16
                            x       y       z     vdW  Elec       q    Type
                         _______ _______ _______ _____ _____    ______ ____

>  <TORSDO>
F 4

$$$$
ox3_orig_f8_ligand
 OpenBabel10092621223D

 18 19  0  0  0  0  0  0  0  0999 V2000
   -6.3240    3.6780   -4.1300 C   0  0  0  0  0  0  0  0  0  0  0  0
   -6.9810    3.0170   -5.1700 C   0  0  0  0  0  3  0  0  0  0  0  0
   -6.8170    1.6510   -5.3380 C   0  0  0  0  0  3  0  0  0  0  0  0
   -6.0030    0.9270   -4.4710 C   0  0  0  0  0  0  0  0  0  0  0  0
   -5.3430    1.6000   -3.4420 C   0  0  0  0  0  0  0  0  0  0  0  0
   -5.5110    2.9690   -3.2830 C   0  0  0  0  0  3  0  0  0  0  0  0
   -5.4210    5.7540   -3.2520 C   0  0  0  0  0  1  0  0  0  0  0  0
   -6.4550    5.0290   -3.9180 O   0  0  0  0  0  0  0  0  0  0  0  0
   -5.8070   -0.5520   -4.6470 C   0  0  0  0  0  0  0  0  0  0  0  0
   -4.8290   -0.9310   -5.2450 O   0  0  0  0  0  0  0  0  0  0  0  0
   -6.7840   -1.5510   -4.1480 C   0  0  0  0  0  0  0  0  0  0  0  0
   -6.9400   -1.7960   -2.7900 C   0  0  0  0  0  3  0  0  0  0  0  0
   -7.8320   -2.7590   -2.3570 C   0  0  0  0  0  3  0  0  0  0  0  0
   -8.6160   -3.4540   -3.2560 C   0  0  0  0  0  3  0  0  0  0  0  0
   -8.4570   -3.2280   -4.6120 C   0  0  0  0  0  3  0  0  0  0  0  0
   -7.5260   -2.2920   -5.0660 C   0  0  0  0  0  3  0  0  0  0  0  0
   -4.5260    0.9030   -2.6030 O   0  0  0  0  0  0  0  0  0  0  0  0
   -4.5850   -0.0840   -2.5600 H   0  0  0  0  0  0  0  0  0  0  0  0
  1  8  1  0  0  0  0
  1  6  1  0  0  0  0
  2  1  2  0  0  0  0
  3  2  1  0  0  0  0
  3  4  2  0  0  0  0
  4  5  1  0  0  0  0
  5  6  2  0  0  0  0
  5 17  1  0  0  0  0
  8  7  1  0  0  0  0
  9  4  1  0  0  0  0
  9 11  1  0  0  0  0
 10  9  2  0  0  0  0
 11 12  1  0  0  0  0
 12 13  2  0  0  0  0
 14 13  1  0  0  0  0
 15 14  2  0  0  0  0
 16 15  1  0  0  0  0
 16 11  2  0  0  0  0
 17 18  1  0  0  0  0
M  END
>  <MODEL>
8

>  <REMARK>
 VINA RESULT:      -4.0      1.801      2.870
  Name = ox3_orig_f8_ligand
  5 active torsions:
  status: ('A' for Active; 'I' for Inactive)
    1  A    between atoms: C_1  and  O_2
    2  A    between atoms: O_2  and  C_3
    3  A    between atoms: C_6  and  C_7
    4  A    between atoms: C_7  and  C_9
    5  A    between atoms: C_15  and  O_16
                            x       y       z     vdW  Elec       q    Type
                         _______ _______ _______ _____ _____    ______ ____

>  <TORSDO>
F 4

$$$$
ox3_orig_f8_ligand
 OpenBabel10092621223D

 18 19  0  0  0  0  0  0  0  0999 V2000
   -3.3200   -2.3440   -8.1890 C   0  0  0  0  0  0  0  0  0  0  0  0
   -2.8070   -1.0620   -7.9800 C   0  0  0  0  0  3  0  0  0  0  0  0
   -3.4090   -0.2150   -7.0620 C   0  0  0  0  0  3  0  0  0  0  0  0
   -4.5220   -0.6350   -6.3390 C   0  0  0  0  0  0  0  0  0  0  0  0
   -5.0320   -1.9140   -6.5640 C   0  0  0  0  0  0  0  0  0  0  0  0
   -4.4250   -2.7550   -7.4890 C   0  0  0  0  0  3  0  0  0  0  0  0
   -1.4230   -3.0260   -9.5430 C   0  0  0  0  0  1  0  0  0  0  0  0
   -2.7600   -3.2220   -9.0840 O   0  0  0  0  0  0  0  0  0  0  0  0
   -5.1900    0.2750   -5.3490 C   0  0  0  0  0  0  0  0  0  0  0  0
   -5.3110   -0.1100   -4.2100 O   0  0  0  0  0  0  0  0  0  0  0  0
   -5.7350    1.6020   -5.7250 C   0  0  0  0  0  0  0  0  0  0  0  0
   -6.7180    1.7340   -6.6970 C   0  0  0  0  0  3  0  0  0  0  0  0
   -7.1800    2.9870   -7.0520 C   0  0  0  0  0  3  0  0  0  0  0  0
   -6.7140    4.1200   -6.4150 C   0  0  0  0  0  3  0  0  0  0  0  0
   -5.7230    4.0020   -5.4560 C   0  0  0  0  0  3  0  0  0  0  0  0
   -5.2140    2.7460   -5.1210 C   0  0  0  0  0  3  0  0  0  0  0  0
   -6.1360   -2.3260   -5.8790 O   0  0  0  0  0  0  0  0  0  0  0  0
   -6.9990   -2.4320   -6.3500 H   0  0  0  0  0  0  0  0  0  0  0  0
  1  2  2  0  0  0  0
  1  6  1  0  0  0  0
  2  3  1  0  0  0  0
  3  4  2  0  0  0  0
  4  9  1  0  0  0  0
  5  4  1  0  0  0  0
  5 17  1  0  0  0  0
  6  5  2  0  0  0  0
  7  8  1  0  0  0  0
  8  1  1  0  0  0  0
  9 10  2  0  0  0  0
 11  9  1  0  0  0  0
 11 16  1  0  0  0  0
 12 11  2  0  0  0  0
 13 12  1  0  0  0  0
 13 14  2  0  0  0  0
 14 15  1  0  0  0  0
 15 16  2  0  0  0  0
 18 17  1  0  0  0  0
M  END
>  <MODEL>
9

>  <REMARK>
 VINA RESULT:      -4.0      2.340      6.152
  Name = ox3_orig_f8_ligand
  5 active torsions:
  status: ('A' for Active; 'I' for Inactive)
    1  A    between atoms: C_1  and  O_2
    2  A    between atoms: O_2  and  C_3
    3  A    between atoms: C_6  and  C_7
    4  A    between atoms: C_7  and  C_9
    5  A    between atoms: C_15  and  O_16
                            x       y       z     vdW  Elec       q    Type
                         _______ _______ _______ _____ _____    ______ ____

>  <TORSDO>
F 4

$$$$
