ox1_esm1_f8_ligand
 OpenBabel10092621183D

 18 19  0  0  0  0  0  0  0  0999 V2000
   -4.4220    4.3180    3.0630 C   0  0  0  0  0  0  0  0  0  0  0  0
   -3.6480    4.2250    4.2200 C   0  0  0  0  0  3  0  0  0  0  0  0
   -3.9790    3.3110    5.2100 C   0  0  0  0  0  3  0  0  0  0  0  0
   -5.0700    2.4710    5.0640 C   0  0  0  0  0  0  0  0  0  0  0  0
   -5.8630    2.5640    3.9020 C   0  0  0  0  0  0  0  0  0  0  0  0
   -5.5230    3.4900    2.9170 C   0  0  0  0  0  3  0  0  0  0  0  0
   -3.7550    6.5820    2.4670 C   0  0  0  0  0  1  0  0  0  0  0  0
   -4.0510    5.2260    2.1150 O   0  0  0  0  0  0  0  0  0  0  0  0
   -5.4110    1.4770    6.1320 C   0  0  0  0  0  0  0  0  0  0  0  0
   -6.3170    1.7290    6.9220 O   0  0  0  0  0  0  0  0  0  0  0  0
   -4.6500    0.1990    6.2620 C   0  0  0  0  0  0  0  0  0  0  0  0
   -4.5670   -0.4420    7.4430 C   0  0  0  0  0  3  0  0  0  0  0  0
   -3.9110   -1.6460    7.6300 C   0  0  0  0  0  3  0  0  0  0  0  0
   -3.2640   -2.2180    6.5610 C   0  0  0  0  0  3  0  0  0  0  0  0
   -3.3110   -1.5810    5.3300 C   0  0  0  0  0  3  0  0  0  0  0  0
   -4.0000   -0.3760    5.1930 C   0  0  0  0  0  3  0  0  0  0  0  0
   -6.9490    1.7500    3.7650 O   0  0  0  0  0  0  0  0  0  0  0  0
   -7.2620    1.2080    4.5320 H   0  0  0  0  0  0  0  0  0  0  0  0
  1  2  1  0  0  0  0
  2  3  2  0  0  0  0
  4  3  1  0  0  0  0
  4  9  1  0  0  0  0
  5  4  2  0  0  0  0
  6  1  2  0  0  0  0
  6  5  1  0  0  0  0
  8  7  1  0  0  0  0
  8  1  1  0  0  0  0
  9 11  1  0  0  0  0
  9 10  2  0  0  0  0
 11 12  1  0  0  0  0
 12 13  2  0  0  0  0
 14 13  1  0  0  0  0
 15 14  2  0  0  0  0
 16 15  1  0  0  0  0
 16 11  2  0  0  0  0
 17  5  1  0  0  0  0
 17 18  1  0  0  0  0
M  END
>  <MODEL>
1

>  <REMARK>
 VINA RESULT:      -4.4      0.000      0.000
  Name = ox1_esm1_f8_ligand
  5 active torsions:
  status: ('A' for Active; 'I' for Inactive)
    1  A    between atoms: C_1  and  O_2
    2  A    between atoms: O_2  and  C_3
    3  A    between atoms: C_6  and  C_7
    4  A    between atoms: C_7  and  C_9
    5  A    between atoms: C_15  and  O_16
                            x       y       z     vdW  Elec       q    Type
                         _______ _______ _______ _____ _____    ______ ____

>  <TORSDO>
F 4

$$$$
ox1_esm1_f8_ligand
 OpenBabel10092621183D

 18 19  0  0  0  0  0  0  0  0999 V2000
   -4.6290    4.1700    2.1710 C   0  0  0  0  0  0  0  0  0  0  0  0
   -5.4510    3.0440    2.1400 C   0  0  0  0  0  3  0  0  0  0  0  0
   -5.7140    2.3380    3.3050 C   0  0  0  0  0  3  0  0  0  0  0  0
   -5.1770    2.7430    4.5160 C   0  0  0  0  0  0  0  0  0  0  0  0
   -4.3380    3.8760    4.5550 C   0  0  0  0  0  0  0  0  0  0  0  0
   -4.0780    4.5720    3.3770 C   0  0  0  0  0  3  0  0  0  0  0  0
   -4.3400    4.1330   -0.2460 C   0  0  0  0  0  1  0  0  0  0  0  0
   -4.4090    4.8350    1.0000 O   0  0  0  0  0  0  0  0  0  0  0  0
   -5.4780    1.9830    5.7720 C   0  0  0  0  0  0  0  0  0  0  0  0
   -6.2600    2.4590    6.5900 O   0  0  0  0  0  0  0  0  0  0  0  0
   -4.8230    0.6700    6.0500 C   0  0  0  0  0  0  0  0  0  0  0  0
   -4.0970    0.0430    5.1040 C   0  0  0  0  0  3  0  0  0  0  0  0
   -3.4330   -1.1550    5.3010 C   0  0  0  0  0  3  0  0  0  0  0  0
   -3.5430   -1.7770    6.5210 C   0  0  0  0  0  3  0  0  0  0  0  0
   -4.2940   -1.1720    7.5180 C   0  0  0  0  0  3  0  0  0  0  0  0
   -4.9300    0.0440    7.2720 C   0  0  0  0  0  3  0  0  0  0  0  0
   -3.7930    4.2650    5.7440 O   0  0  0  0  0  0  0  0  0  0  0  0
   -4.3400    4.2460    6.5690 H   0  0  0  0  0  0  0  0  0  0  0  0
  1  6  1  0  0  0  0
  2  1  2  0  0  0  0
  2  3  1  0  0  0  0
  3  4  2  0  0  0  0
  4  5  1  0  0  0  0
  4  9  1  0  0  0  0
  5 17  1  0  0  0  0
  6  5  2  0  0  0  0
  7  8  1  0  0  0  0
  8  1  1  0  0  0  0
  9 11  1  0  0  0  0
  9 10  2  0  0  0  0
 11 16  1  0  0  0  0
 12 13  1  0  0  0  0
 12 11  2  0  0  0  0
 13 14  2  0  0  0  0
 14 15  1  0  0  0  0
 16 15  2  0  0  0  0
 17 18  1  0  0  0  0
M  END
>  <MODEL>
2

>  <REMARK>
 VINA RESULT:      -4.4      1.392      2.248
  Name = ox1_esm1_f8_ligand
  5 active torsions:
  status: ('A' for Active; 'I' for Inactive)
    1  A    between atoms: C_1  and  O_2
    2  A    between atoms: O_2  and  C_3
    3  A    between atoms: C_6  and  C_7
    4  A    between atoms: C_7  and  C_9
    5  A    between atoms: C_15  and  O_16
                            x       y       z     vdW  Elec       q    Type
                         _______ _______ _______ _____ _____    ______ ____

>  <TORSDO>
F 4

$$$$
ox1_esm1_f8_ligand
 OpenBabel10092621183D

 18 19  0  0  0  0  0  0  0  0999 V2000
   -3.7550   -0.8410    5.7840 C   0  0  0  0  0  0  0  0  0  0  0  0
   -3.6180   -1.8080    6.7800 C   0  0  0  0  0  3  0  0  0  0  0  0
   -4.3180   -1.6870    7.9720 C   0  0  0  0  0  3  0  0  0  0  0  0
   -5.1700   -0.6160    8.1890 C   0  0  0  0  0  0  0  0  0  0  0  0
   -5.3080    0.3700    7.1910 C   0  0  0  0  0  0  0  0  0  0  0  0
   -4.5950    0.2390    6.0000 C   0  0  0  0  0  3  0  0  0  0  0  0
   -2.9440   -2.2980    4.0110 C   0  0  0  0  0  1  0  0  0  0  0  0
   -3.0530   -1.0100    4.6260 O   0  0  0  0  0  0  0  0  0  0  0  0
   -5.9330   -0.5020    9.4730 C   0  0  0  0  0  0  0  0  0  0  0  0
   -7.0480   -1.0100    9.5580 O   0  0  0  0  0  0  0  0  0  0  0  0
   -5.3660    0.2400   10.6390 C   0  0  0  0  0  0  0  0  0  0  0  0
   -5.9290    1.3840   11.0720 C   0  0  0  0  0  3  0  0  0  0  0  0
   -5.4810    2.1050   12.1660 C   0  0  0  0  0  3  0  0  0  0  0  0
   -4.3690    1.6590   12.8400 C   0  0  0  0  0  3  0  0  0  0  0  0
   -3.7510    0.4920   12.4150 C   0  0  0  0  0  3  0  0  0  0  0  0
   -4.2530   -0.2040   11.3160 C   0  0  0  0  0  3  0  0  0  0  0  0
   -6.1320    1.4350    7.4100 O   0  0  0  0  0  0  0  0  0  0  0  0
   -7.0010    1.3030    7.8650 H   0  0  0  0  0  0  0  0  0  0  0  0
  1  6  2  0  0  0  0
  1  2  1  0  0  0  0
  2  3  2  0  0  0  0
  3  4  1  0  0  0  0
  4  9  1  0  0  0  0
  5 17  1  0  0  0  0
  5  4  2  0  0  0  0
  6  5  1  0  0  0  0
  7  8  1  0  0  0  0
  8  1  1  0  0  0  0
  9 10  2  0  0  0  0
  9 11  1  0  0  0  0
 11 12  2  0  0  0  0
 11 16  1  0  0  0  0
 12 13  1  0  0  0  0
 13 14  2  0  0  0  0
 15 14  1  0  0  0  0
 16 15  2  0  0  0  0
 17 18  1  0  0  0  0
M  END
>  <MODEL>
3

>  <REMARK>
 VINA RESULT:      -4.4      3.545      5.749
  Name = ox1_esm1_f8_ligand
  5 active torsions:
  status: ('A' for Active; 'I' for Inactive)
    1  A    between atoms: C_1  and  O_2
    2  A    between atoms: O_2  and  C_3
    3  A    between atoms: C_6  and  C_7
    4  A    between atoms: C_7  and  C_9
    5  A    between atoms: C_15  and  O_16
                            x       y       z     vdW  Elec       q    Type
                         _______ _______ _______ _____ _____    ______ ____

>  <TORSDO>
F 4

$$$$
ox1_esm1_f8_ligand
 OpenBabel10092621183D

 18 19  0  0  0  0  0  0  0  0999 V2000
   -2.4670   -0.9530   -0.2210 C   0  0  0  0  0  0  0  0  0  0  0  0
   -3.7090   -1.2870    0.3170 C   0  0  0  0  0  3  0  0  0  0  0  0
   -3.7880   -1.9520    1.5330 C   0  0  0  0  0  3  0  0  0  0  0  0
   -2.6420   -2.2840    2.2350 C   0  0  0  0  0  0  0  0  0  0  0  0
   -1.3810   -1.9580    1.6940 C   0  0  0  0  0  0  0  0  0  0  0  0
   -1.3160   -1.2950    0.4700 C   0  0  0  0  0  3  0  0  0  0  0  0
   -2.3180    1.1340   -1.4650 C   0  0  0  0  0  1  0  0  0  0  0  0
   -2.4420   -0.2910   -1.4140 O   0  0  0  0  0  0  0  0  0  0  0  0
   -2.7370   -2.9890    3.5540 C   0  0  0  0  0  0  0  0  0  0  0  0
   -2.4250   -4.1740    3.6260 O   0  0  0  0  0  0  0  0  0  0  0  0
   -3.2270   -2.2760    4.7710 C   0  0  0  0  0  0  0  0  0  0  0  0
   -3.5680   -0.9740    4.7220 C   0  0  0  0  0  3  0  0  0  0  0  0
   -4.0630   -0.2590    5.7990 C   0  0  0  0  0  3  0  0  0  0  0  0
   -4.1830   -0.8920    7.0120 C   0  0  0  0  0  3  0  0  0  0  0  0
   -3.8270   -2.2290    7.1090 C   0  0  0  0  0  3  0  0  0  0  0  0
   -3.3490   -2.9070    5.9890 C   0  0  0  0  0  3  0  0  0  0  0  0
   -0.2500   -2.3000    2.3760 O   0  0  0  0  0  0  0  0  0  0  0  0
    0.0400   -1.7630    3.1550 H   0  0  0  0  0  0  0  0  0  0  0  0
  1  2  2  0  0  0  0
  1  6  1  0  0  0  0
  2  3  1  0  0  0  0
  3  4  2  0  0  0  0
  4  9  1  0  0  0  0
  5  4  1  0  0  0  0
  5 17  1  0  0  0  0
  6  5  2  0  0  0  0
  7  8  1  0  0  0  0
  8  1  1  0  0  0  0
  9 10  2  0  0  0  0
  9 11  1  0  0  0  0
 11 16  1  0  0  0  0
 12 11  2  0  0  0  0
 12 13  1  0  0  0  0
 13 14  2  0  0  0  0
 14 15  1  0  0  0  0
 16 15  2  0  0  0  0
 17 18  1  0  0  0  0
M  END
>  <MODEL>
4

>  <REMARK>
 VINA RESULT:      -4.2      4.441      5.671
  Name = ox1_esm1_f8_ligand
  5 active torsions:
  status: ('A' for Active; 'I' for Inactive)
    1  A    between atoms: C_1  and  O_2
    2  A    between atoms: O_2  and  C_3
    3  A    between atoms: C_6  and  C_7
    4  A    between atoms: C_7  and  C_9
    5  A    between atoms: C_15  and  O_16
                            x       y       z     vdW  Elec       q    Type
                         _______ _______ _______ _____ _____    ______ ____

>  <TORSDO>
F 4

$$$$
ox1_esm1_f8_ligand
 OpenBabel10092621183D

 18 19  0  0  0  0  0  0  0  0999 V2000
   -4.1880   -0.9400    6.8170 C   0  0  0  0  0  0  0  0  0  0  0  0
   -4.0460   -0.2900    5.5910 C   0  0  0  0  0  3  0  0  0  0  0  0
   -3.6620   -1.0020    4.4630 C   0  0  0  0  0  3  0  0  0  0  0  0
   -3.4250   -2.3640    4.5300 C   0  0  0  0  0  0  0  0  0  0  0  0
   -3.5570   -3.0290    5.7680 C   0  0  0  0  0  0  0  0  0  0  0  0
   -3.9390   -2.3010    6.8940 C   0  0  0  0  0  3  0  0  0  0  0  0
   -4.4250   -0.6990    9.2270 C   0  0  0  0  0  1  0  0  0  0  0  0
   -4.5770   -0.1990    7.8940 O   0  0  0  0  0  0  0  0  0  0  0  0
   -3.0250   -3.1270    3.3040 C   0  0  0  0  0  0  0  0  0  0  0  0
   -3.4360   -4.2730    3.1480 O   0  0  0  0  0  0  0  0  0  0  0  0
   -2.1170   -2.5200    2.2850 C   0  0  0  0  0  0  0  0  0  0  0  0
   -0.7790   -2.6250    2.3990 C   0  0  0  0  0  3  0  0  0  0  0  0
    0.1210   -2.1200    1.4770 C   0  0  0  0  0  3  0  0  0  0  0  0
   -0.3630   -1.4310    0.3910 C   0  0  0  0  0  3  0  0  0  0  0  0
   -1.7350   -1.2880    0.2450 C   0  0  0  0  0  3  0  0  0  0  0  0
   -2.5990   -1.8300    1.1960 C   0  0  0  0  0  3  0  0  0  0  0  0
   -3.3070   -4.3680    5.8400 O   0  0  0  0  0  0  0  0  0  0  0  0
   -4.0430   -5.0170    5.7160 H   0  0  0  0  0  0  0  0  0  0  0  0
  1  6  1  0  0  0  0
  1  8  1  0  0  0  0
  2  1  2  0  0  0  0
  3  4  2  0  0  0  0
  3  2  1  0  0  0  0
  4  5  1  0  0  0  0
  5 17  1  0  0  0  0
  5  6  2  0  0  0  0
  8  7  1  0  0  0  0
  9  4  1  0  0  0  0
 10  9  2  0  0  0  0
 11 12  1  0  0  0  0
 11  9  1  0  0  0  0
 13 12  2  0  0  0  0
 14 13  1  0  0  0  0
 15 14  2  0  0  0  0
 15 16  1  0  0  0  0
 16 11  2  0  0  0  0
 18 17  1  0  0  0  0
M  END
>  <MODEL>
5

>  <REMARK>
 VINA RESULT:      -4.1      4.019      6.583
  Name = ox1_esm1_f8_ligand
  5 active torsions:
  status: ('A' for Active; 'I' for Inactive)
    1  A    between atoms: C_1  and  O_2
    2  A    between atoms: O_2  and  C_3
    3  A    between atoms: C_6  and  C_7
    4  A    between atoms: C_7  and  C_9
    5  A    between atoms: C_15  and  O_16
                            x       y       z     vdW  Elec       q    Type
                         _______ _______ _______ _____ _____    ______ ____

>  <TORSDO>
F 4

$$$$
ox1_esm1_f8_ligand
 OpenBabel10092621183D

 18 19  0  0  0  0  0  0  0  0999 V2000
   -3.7640   -5.5770    6.7810 C   0  0  0  0  0  0  0  0  0  0  0  0
   -4.0550   -5.5550    5.4180 C   0  0  0  0  0  3  0  0  0  0  0  0
   -3.8950   -4.3860    4.6870 C   0  0  0  0  0  3  0  0  0  0  0  0
   -3.4360   -3.2290    5.2930 C   0  0  0  0  0  0  0  0  0  0  0  0
   -3.1470   -3.2390    6.6730 C   0  0  0  0  0  0  0  0  0  0  0  0
   -3.3160   -4.4180    7.3960 C   0  0  0  0  0  3  0  0  0  0  0  0
   -3.3920   -6.9310    8.7690 C   0  0  0  0  0  1  0  0  0  0  0  0
   -3.9280   -6.7520    7.4530 O   0  0  0  0  0  0  0  0  0  0  0  0
   -3.2520   -1.9750    4.4930 C   0  0  0  0  0  0  0  0  0  0  0  0
   -3.5200   -0.8910    5.0040 O   0  0  0  0  0  0  0  0  0  0  0  0
   -2.7720   -2.0300    3.0800 C   0  0  0  0  0  0  0  0  0  0  0  0
   -1.5240   -2.4460    2.7880 C   0  0  0  0  0  3  0  0  0  0  0  0
   -1.0230   -2.5560    1.5020 C   0  0  0  0  0  3  0  0  0  0  0  0
   -1.8230   -2.1850    0.4480 C   0  0  0  0  0  3  0  0  0  0  0  0
   -3.1100   -1.7350    0.7080 C   0  0  0  0  0  3  0  0  0  0  0  0
   -3.5700   -1.6580    2.0220 C   0  0  0  0  0  3  0  0  0  0  0  0
   -2.7100   -2.0950    7.2750 O   0  0  0  0  0  0  0  0  0  0  0  0
   -2.7580   -2.0040    8.2590 H   0  0  0  0  0  0  0  0  0  0  0  0
  1  6  1  0  0  0  0
  1  8  1  0  0  0  0
  2  1  2  0  0  0  0
  3  4  2  0  0  0  0
  3  2  1  0  0  0  0
  4  5  1  0  0  0  0
  5 17  1  0  0  0  0
  5  6  2  0  0  0  0
  8  7  1  0  0  0  0
  9 10  2  0  0  0  0
  9  4  1  0  0  0  0
 11  9  1  0  0  0  0
 12 11  1  0  0  0  0
 13 12  2  0  0  0  0
 14 15  2  0  0  0  0
 14 13  1  0  0  0  0
 15 16  1  0  0  0  0
 16 11  2  0  0  0  0
 17 18  1  0  0  0  0
M  END
>  <MODEL>
6

>  <REMARK>
 VINA RESULT:      -4.0      4.779      8.009
  Name = ox1_esm1_f8_ligand
  5 active torsions:
  status: ('A' for Active; 'I' for Inactive)
    1  A    between atoms: C_1  and  O_2
    2  A    between atoms: O_2  and  C_3
    3  A    between atoms: C_6  and  C_7
    4  A    between atoms: C_7  and  C_9
    5  A    between atoms: C_15  and  O_16
                            x       y       z     vdW  Elec       q    Type
                         _______ _______ _______ _____ _____    ______ ____

>  <TORSDO>
F 4

$$$$
ox1_esm1_f8_ligand
 OpenBabel10092621183D

 18 19  0  0  0  0  0  0  0  0999 V2000
   -6.2100   -3.4670    7.3590 C   0  0  0  0  0  0  0  0  0  0  0  0
   -6.5330   -3.3450    6.0070 C   0  0  0  0  0  3  0  0  0  0  0  0
   -5.6070   -2.8310    5.1110 C   0  0  0  0  0  3  0  0  0  0  0  0
   -4.3470   -2.4430    5.5370 C   0  0  0  0  0  0  0  0  0  0  0  0
   -4.0150   -2.5560    6.9030 C   0  0  0  0  0  0  0  0  0  0  0  0
   -4.9560   -3.0680    7.7930 C   0  0  0  0  0  3  0  0  0  0  0  0
   -7.4030   -5.3950    8.2430 C   0  0  0  0  0  1  0  0  0  0  0  0
   -7.1520   -3.9870    8.1980 O   0  0  0  0  0  0  0  0  0  0  0  0
   -3.3480   -1.9030    4.5600 C   0  0  0  0  0  0  0  0  0  0  0  0
   -3.1210   -0.6970    4.5360 O   0  0  0  0  0  0  0  0  0  0  0  0
   -2.6440   -2.8090    3.6030 C   0  0  0  0  0  0  0  0  0  0  0  0
   -2.7710   -4.1460    3.6940 C   0  0  0  0  0  3  0  0  0  0  0  0
   -2.1790   -5.0440    2.8220 C   0  0  0  0  0  3  0  0  0  0  0  0
   -1.3750   -4.5580    1.8190 C   0  0  0  0  0  3  0  0  0  0  0  0
   -1.2060   -3.1860    1.7010 C   0  0  0  0  0  3  0  0  0  0  0  0
   -1.8380   -2.3250    2.5970 C   0  0  0  0  0  3  0  0  0  0  0  0
   -2.7810   -2.1580    7.3280 O   0  0  0  0  0  0  0  0  0  0  0  0
   -2.6680   -1.7750    8.2340 H   0  0  0  0  0  0  0  0  0  0  0  0
  1  6  1  0  0  0  0
  1  8  1  0  0  0  0
  2  1  2  0  0  0  0
  3  4  2  0  0  0  0
  3  2  1  0  0  0  0
  4  5  1  0  0  0  0
  5 17  1  0  0  0  0
  5  6  2  0  0  0  0
  8  7  1  0  0  0  0
  9  4  1  0  0  0  0
 10  9  2  0  0  0  0
 11 12  1  0  0  0  0
 11  9  1  0  0  0  0
 13 12  2  0  0  0  0
 14 13  1  0  0  0  0
 15 14  2  0  0  0  0
 15 16  1  0  0  0  0
 16 11  2  0  0  0  0
 17 18  1  0  0  0  0
M  END
>  <MODEL>
7

>  <REMARK>
 VINA RESULT:      -4.0      4.792      7.214
  Name = ox1_esm1_f8_ligand
  5 active torsions:
  status: ('A' for Active; 'I' for Inactive)
    1  A    between atoms: C_1  and  O_2
    2  A    between atoms: O_2  and  C_3
    3  A    between atoms: C_6  and  C_7
    4  A    between atoms: C_7  and  C_9
    5  A    between atoms: C_15  and  O_16
                            x       y       z     vdW  Elec       q    Type
                         _______ _______ _______ _____ _____    ______ ____

>  <TORSDO>
F 4

$$$$
ox1_esm1_f8_ligand
 OpenBabel10092621183D

 18 19  0  0  0  0  0  0  0  0999 V2000
   -5.8540    0.7250    8.7280 C   0  0  0  0  0  0  0  0  0  0  0  0
   -5.1060   -0.2790    9.3420 C   0  0  0  0  0  3  0  0  0  0  0  0
   -4.4090   -1.2010    8.5740 C   0  0  0  0  0  3  0  0  0  0  0  0
   -4.4340   -1.1340    7.1910 C   0  0  0  0  0  0  0  0  0  0  0  0
   -5.1950   -0.1270    6.5610 C   0  0  0  0  0  0  0  0  0  0  0  0
   -5.8940    0.7890    7.3450 C   0  0  0  0  0  3  0  0  0  0  0  0
   -6.3250    1.6080   10.9470 C   0  0  0  0  0  1  0  0  0  0  0  0
   -6.5140    1.6120    9.5270 O   0  0  0  0  0  0  0  0  0  0  0  0
   -3.6670   -2.1250    6.3690 C   0  0  0  0  0  0  0  0  0  0  0  0
   -2.8570   -1.7190    5.5400 O   0  0  0  0  0  0  0  0  0  0  0  0
   -3.8910   -3.5920    6.5290 C   0  0  0  0  0  0  0  0  0  0  0  0
   -4.8490   -4.2280    5.8280 C   0  0  0  0  0  3  0  0  0  0  0  0
   -5.0900   -5.5890    5.8980 C   0  0  0  0  0  3  0  0  0  0  0  0
   -4.3390   -6.3480    6.7620 C   0  0  0  0  0  3  0  0  0  0  0  0
   -3.3520   -5.7290    7.5150 C   0  0  0  0  0  3  0  0  0  0  0  0
   -3.1400   -4.3560    7.3940 C   0  0  0  0  0  3  0  0  0  0  0  0
   -5.2350   -0.0700    5.1980 O   0  0  0  0  0  0  0  0  0  0  0  0
   -5.1950    0.8050    4.7380 H   0  0  0  0  0  0  0  0  0  0  0  0
  1  2  1  0  0  0  0
  1  8  1  0  0  0  0
  3  2  2  0  0  0  0
  4  3  1  0  0  0  0
  5  4  2  0  0  0  0
  5  6  1  0  0  0  0
  6  1  2  0  0  0  0
  8  7  1  0  0  0  0
  9 11  1  0  0  0  0
  9  4  1  0  0  0  0
 10  9  2  0  0  0  0
 11 16  1  0  0  0  0
 12 13  1  0  0  0  0
 12 11  2  0  0  0  0
 13 14  2  0  0  0  0
 14 15  1  0  0  0  0
 16 15  2  0  0  0  0
 17  5  1  0  0  0  0
 18 17  1  0  0  0  0
M  END
>  <MODEL>
8

>  <REMARK>
 VINA RESULT:      -3.9      3.826      5.575
  Name = ox1_esm1_f8_ligand
  5 active torsions:
  status: ('A' for Active; 'I' for Inactive)
    1  A    between atoms: C_1  and  O_2
    2  A    between atoms: O_2  and  C_3
    3  A    between atoms: C_6  and  C_7
    4  A    between atoms: C_7  and  C_9
    5  A    between atoms: C_15  and  O_16
                            x       y       z     vdW  Elec       q    Type
                         _______ _______ _______ _____ _____    ______ ____

>  <TORSDO>
F 4

$$$$
ox1_esm1_f8_ligand
 OpenBabel10092621183D

 18 19  0  0  0  0  0  0  0  0999 V2000
   -5.8080   -0.4240    7.0960 C   0  0  0  0  0  0  0  0  0  0  0  0
   -6.3550   -1.1510    6.0390 C   0  0  0  0  0  3  0  0  0  0  0  0
   -5.6550   -2.2120    5.4840 C   0  0  0  0  0  3  0  0  0  0  0  0
   -4.4110   -2.5750    5.9740 C   0  0  0  0  0  0  0  0  0  0  0  0
   -3.8460   -1.8400    7.0370 C   0  0  0  0  0  0  0  0  0  0  0  0
   -4.5580   -0.7730    7.5820 C   0  0  0  0  0  3  0  0  0  0  0  0
   -6.5790    0.8460    9.0240 C   0  0  0  0  0  1  0  0  0  0  0  0
   -6.5400    0.6040    7.6140 O   0  0  0  0  0  0  0  0  0  0  0  0
   -3.6680   -3.7320    5.3780 C   0  0  0  0  0  0  0  0  0  0  0  0
   -3.6520   -4.8060    5.9730 O   0  0  0  0  0  0  0  0  0  0  0  0
   -2.9310   -3.5870    4.0880 C   0  0  0  0  0  0  0  0  0  0  0  0
   -2.6120   -2.3720    3.6040 C   0  0  0  0  0  3  0  0  0  0  0  0
   -1.9000   -2.1630    2.4360 C   0  0  0  0  0  3  0  0  0  0  0  0
   -1.5210   -3.2530    1.6900 C   0  0  0  0  0  3  0  0  0  0  0  0
   -1.8440   -4.5220    2.1450 C   0  0  0  0  0  3  0  0  0  0  0  0
   -2.5500   -4.6780    3.3380 C   0  0  0  0  0  3  0  0  0  0  0  0
   -2.6130   -2.1850    7.5100 O   0  0  0  0  0  0  0  0  0  0  0  0
   -1.9190   -2.5140    6.8860 H   0  0  0  0  0  0  0  0  0  0  0  0
  1  6  1  0  0  0  0
  1  8  1  0  0  0  0
  2  1  2  0  0  0  0
  3  4  2  0  0  0  0
  3  2  1  0  0  0  0
  4  5  1  0  0  0  0
  5 17  1  0  0  0  0
  5  6  2  0  0  0  0
  8  7  1  0  0  0  0
  9 10  2  0  0  0  0
  9  4  1  0  0  0  0
 11  9  1  0  0  0  0
 12 11  1  0  0  0  0
 13 12  2  0  0  0  0
 14 15  2  0  0  0  0
 14 13  1  0  0  0  0
 15 16  1  0  0  0  0
 16 11  2  0  0  0  0
 18 17  1  0  0  0  0
M  END
>  <MODEL>
9

>  <REMARK>
 VINA RESULT:      -3.9      4.385      6.109
  Name = ox1_esm1_f8_ligand
  5 active torsions:
  status: ('A' for Active; 'I' for Inactive)
    1  A    between atoms: C_1  and  O_2
    2  A    between atoms: O_2  and  C_3
    3  A    between atoms: C_6  and  C_7
    4  A    between atoms: C_7  and  C_9
    5  A    between atoms: C_15  and  O_16
                            x       y       z     vdW  Elec       q    Type
                         _______ _______ _______ _____ _____    ______ ____

>  <TORSDO>
F 4

$$$$
