shuffle_control_ligand
     RDKit          3D

 44 44  0  0  0  0  0  0  0  0999 V2000
    5.5985  -11.6580    4.7156 C   0  0  0  0  0  0  0  0  0  0  0  0
    6.7724  -10.8449    5.1852 C   0  0  0  0  0  0  0  0  0  0  0  0
    7.2597   -9.8937    4.1239 C   0  0  0  0  0  0  0  0  0  0  0  0
    8.3890   -9.0413    4.6061 C   0  0  0  0  0  0  0  0  0  0  0  0
    8.9732   -8.1391    3.5435 C   0  0  2  0  0  0  0  0  0  0  0  0
    9.8815   -7.1154    4.2064 C   0  0  0  0  0  0  0  0  0  0  0  0
   10.1212   -5.8766    3.4132 C   0  0  0  0  0  0  0  0  0  0  0  0
    7.9129   -7.4842    2.8779 O   0  0  0  0  0  0  0  0  0  0  0  0
    7.6845   -7.7139    1.5806 C   0  0  0  0  0  0  0  0  0  0  0  0
    8.3812   -8.4526    0.9373 O   0  0  0  0  0  0  0  0  0  0  0  0
    6.5164   -6.9801    1.0379 C   0  0  0  0  0  0  0  0  0  0  0  0
    6.1830   -7.0841   -0.2523 C   0  0  0  0  0  0  0  0  0  0  0  0
    5.0489   -6.3613   -0.8750 C   0  0  0  0  0  0  0  0  0  0  0  0
    4.1112   -5.6877   -0.1369 C   0  0  0  0  0  0  0  0  0  0  0  0
    3.0629   -5.0207   -0.7626 C   0  0  0  0  0  0  0  0  0  0  0  0
    2.9501   -5.0294   -2.1284 C   0  0  0  0  0  0  0  0  0  0  0  0
    1.9505   -4.3900   -2.8009 O   0  0  0  0  0  0  0  0  0  0  0  0
    0.9505   -3.6895   -2.0859 C   0  0  0  0  0  0  0  0  0  0  0  0
    3.8857   -5.7050   -2.8726 C   0  0  0  0  0  0  0  0  0  0  0  0
    4.9326   -6.3735   -2.2490 C   0  0  0  0  0  0  0  0  0  0  0  0
    5.0382  -12.0298    5.5862 H   0  0  0  0  0  0  0  0  0  0  0  0
    4.9408  -11.0293    4.0975 H   0  0  0  0  0  0  0  0  0  0  0  0
    5.9576  -12.5100    4.1196 H   0  0  0  0  0  0  0  0  0  0  0  0
    6.4719  -10.2656    6.0707 H   0  0  0  0  0  0  0  0  0  0  0  0
    7.5928  -11.5380    5.4234 H   0  0  0  0  0  0  0  0  0  0  0  0
    7.6011  -10.4762    3.2556 H   0  0  0  0  0  0  0  0  0  0  0  0
    6.4249   -9.2292    3.8565 H   0  0  0  0  0  0  0  0  0  0  0  0
    8.0209   -8.4124    5.4301 H   0  0  0  0  0  0  0  0  0  0  0  0
    9.1918   -9.7239    4.9217 H   0  0  0  0  0  0  0  0  0  0  0  0
    9.5585   -8.7246    2.8191 H   0  0  0  0  0  0  0  0  0  0  0  0
    9.4251   -6.8241    5.1640 H   0  0  0  0  0  0  0  0  0  0  0  0
   10.8615   -7.6020    4.3190 H   0  0  0  0  0  0  0  0  0  0  0  0
    9.2474   -5.6739    2.7767 H   0  0  0  0  0  0  0  0  0  0  0  0
   10.2819   -5.0292    4.0960 H   0  0  0  0  0  0  0  0  0  0  0  0
   11.0114   -6.0122    2.7814 H   0  0  0  0  0  0  0  0  0  0  0  0
    5.9171   -6.3427    1.7046 H   0  0  0  0  0  0  0  0  0  0  0  0
    6.7869   -7.7460   -0.8905 H   0  0  0  0  0  0  0  0  0  0  0  0
    4.1882   -5.6741    0.9603 H   0  0  0  0  0  0  0  0  0  0  0  0
    2.3192   -4.4824   -0.1567 H   0  0  0  0  0  0  0  0  0  0  0  0
    0.0180   -4.2730   -2.0929 H   0  0  0  0  0  0  0  0  0  0  0  0
    1.2803   -3.5378   -1.0476 H   0  0  0  0  0  0  0  0  0  0  0  0
    0.7756   -2.7131   -2.5615 H   0  0  0  0  0  0  0  0  0  0  0  0
    3.8060   -5.7173   -3.9697 H   0  0  0  0  0  0  0  0  0  0  0  0
    5.6732   -6.9156   -2.8553 H   0  0  0  0  0  0  0  0  0  0  0  0
  2  1  1  0
  3  2  1  0
  4  3  1  0
  5  4  1  0
  6  5  1  0
  7  6  1  0
  8  5  1  0
  9  8  1  0
 10  9  2  0
 11  9  1  0
 12 11  2  3
 13 12  1  0
 14 13  1  0
 15 14  2  0
 16 15  1  0
 17 16  1  0
 18 17  1  0
 19 16  2  0
 20 19  1  0
 20 13  2  0
  1 21  1  0
  1 22  1  0
  1 23  1  0
  2 24  1  0
  2 25  1  0
  3 26  1  0
  3 27  1  0
  4 28  1  0
  4 29  1  0
  5 30  1  6
  6 31  1  0
  6 32  1  0
  7 33  1  0
  7 34  1  0
  7 35  1  0
 11 36  1  0
 12 37  1  0
 14 38  1  0
 15 39  1  0
 18 40  1  0
 18 41  1  0
 18 42  1  0
 19 43  1  0
 20 44  1  0
M  END
$$$$
