shuffle_control_ligand
 OpenBabel10092621093D

 20 20  0  0  1  0  0  0  0  0999 V2000
    3.2660   -5.0750   -1.1510 C   0  0  0  0  0  0  0  0  0  0  0  0
    2.2760   -5.1430   -0.4710 O   0  0  0  0  0  0  0  0  0  0  0  0
    4.6240   -5.4570   -0.6940 C   0  0  0  0  0  3  0  0  0  0  0  0
    4.8500   -5.7740    0.5840 C   0  0  0  0  0  3  0  0  0  0  0  0
    6.1820   -6.1380    1.1220 C   0  0  0  0  0  0  0  0  0  0  0  0
    6.6080   -5.7420    2.3630 C   0  0  0  0  0  3  0  0  0  0  0  0
    7.8660   -6.1080    2.8300 C   0  0  0  0  0  3  0  0  0  0  0  0
    8.7010   -6.8680    2.0560 C   0  0  0  0  0  0  0  0  0  0  0  0
    8.2810   -7.2660    0.8100 C   0  0  0  0  0  3  0  0  0  0  0  0
    7.0250   -6.9000    0.3410 C   0  0  0  0  0  3  0  0  0  0  0  0
    9.9430   -7.2640    2.4590 O   0  0  0  0  0  0  0  0  0  0  0  0
   10.2120   -8.6350    2.6790 C   0  0  0  0  0  1  0  0  0  0  0  0
    3.2230   -4.6320   -2.4120 O   0  0  0  0  0  0  0  0  0  0  0  0
    4.1380   -5.1200   -3.3710 C   0  0  1  0  0  3  0  0  0  0  0  0
    3.4530   -6.1340   -4.2740 C   0  0  0  0  0  2  0  0  0  0  0  0
    3.6880   -7.5600   -3.9120 C   0  0  0  0  0  1  0  0  0  0  0  0
    4.6190   -3.9580   -4.2110 C   0  0  0  0  0  2  0  0  0  0  0  0
    6.1060   -3.8120   -4.2480 C   0  0  0  0  0  2  0  0  0  0  0  0
    8.2770   -4.9830   -3.8680 C   0  0  0  0  0  1  0  0  0  0  0  0
    6.8080   -4.9470   -3.5500 C   0  0  0  0  0  2  0  0  0  0  0  0
  1  3  1  0  0  0  0
  1  2  2  0  0  0  0
  3  4  2  0  0  0  0
  4  5  1  0  0  0  0
  5  6  1  0  0  0  0
  6  7  2  0  0  0  0
  8 11  1  0  0  0  0
  8  7  1  0  0  0  0
  9  8  2  0  0  0  0
 10  9  1  0  0  0  0
 10  5  2  0  0  0  0
 11 12  1  0  0  0  0
 13  1  1  0  0  0  0
 14 15  1  6  0  0  0
 14 13  1  0  0  0  0
 15 16  1  0  0  0  0
 17 14  1  0  0  0  0
 18 17  1  0  0  0  0
 18 20  1  0  0  0  0
 19 20  1  0  0  0  0
M  END
>  <MODEL>
1

>  <REMARK>
 VINA RESULT:      -4.9      0.000      0.000
  Name = shuffle_control_ligand
  12 active torsions:
  status: ('A' for Active; 'I' for Inactive)
    1  A    between atoms: C_1  and  C_2
    2  A    between atoms: C_2  and  C_3
    3  A    between atoms: C_3  and  C_4
    4  A    between atoms: C_4  and  C_5
    5  A    between atoms: C_5  and  C_6
    6  A    between atoms: C_5  and  O_8
    7  A    between atoms: C_6  and  C_7
    8  A    between atoms: O_8  and  C_9
    9  A    between atoms: C_9  and  C_11
   10  A    between atoms: C_12  and  C_13
   11  A    between atoms: C_16  and  O_17
   12  A    between atoms: O_17  and  C_18
                            x       y       z     vdW  Elec       q    Type
                         _______ _______ _______ _____ _____    ______ ____

>  <TORSDO>
F 9

$$$$
shuffle_control_ligand
 OpenBabel10092621093D

 20 20  0  0  1  0  0  0  0  0999 V2000
    5.2650   -5.7590    1.5930 C   0  0  0  0  0  0  0  0  0  0  0  0
    5.1490   -5.0150    2.5310 O   0  0  0  0  0  0  0  0  0  0  0  0
    4.9410   -5.3960    0.1920 C   0  0  0  0  0  3  0  0  0  0  0  0
    5.7190   -5.8010   -0.8160 C   0  0  0  0  0  3  0  0  0  0  0  0
    5.4780   -5.4570   -2.2370 C   0  0  0  0  0  0  0  0  0  0  0  0
    6.4940   -5.3430   -3.1490 C   0  0  0  0  0  3  0  0  0  0  0  0
    6.2230   -5.0190   -4.4750 C   0  0  0  0  0  3  0  0  0  0  0  0
    4.9350   -4.8050   -4.8890 C   0  0  0  0  0  0  0  0  0  0  0  0
    3.9120   -4.9140   -3.9780 C   0  0  0  0  0  3  0  0  0  0  0  0
    4.1820   -5.2370   -2.6530 C   0  0  0  0  0  3  0  0  0  0  0  0
    4.6040   -4.4900   -6.1750 O   0  0  0  0  0  0  0  0  0  0  0  0
    3.2470   -4.3170   -6.5340 C   0  0  0  0  0  1  0  0  0  0  0  0
    5.7060   -7.0120    1.7390 O   0  0  0  0  0  0  0  0  0  0  0  0
    6.8080   -7.2880    2.5790 C   0  0  1  0  0  3  0  0  0  0  0  0
    6.9040   -8.7840    2.8360 C   0  0  0  0  0  2  0  0  0  0  0  0
    7.8270   -9.5220    1.9300 C   0  0  0  0  0  1  0  0  0  0  0  0
    8.0690   -6.8260    1.8840 C   0  0  0  0  0  2  0  0  0  0  0  0
    8.8970   -5.8820    2.6960 C   0  0  0  0  0  2  0  0  0  0  0  0
   10.3130   -7.4620    4.0090 C   0  0  0  0  0  1  0  0  0  0  0  0
   10.2870   -6.4090    2.9370 C   0  0  0  0  0  2  0  0  0  0  0  0
  1 13  1  0  0  0  0
  1  2  2  0  0  0  0
  3  1  1  0  0  0  0
  4  3  2  0  0  0  0
  5  4  1  0  0  0  0
  6  5  2  0  0  0  0
  7  6  1  0  0  0  0
  8  7  2  0  0  0  0
  8  9  1  0  0  0  0
  9 10  2  0  0  0  0
 10  5  1  0  0  0  0
 11  8  1  0  0  0  0
 12 11  1  0  0  0  0
 13 14  1  0  0  0  0
 14 17  1  6  0  0  0
 14 15  1  0  0  0  0
 16 15  1  0  0  0  0
 17 18  1  0  0  0  0
 18 20  1  0  0  0  0
 20 19  1  0  0  0  0
M  END
>  <MODEL>
2

>  <REMARK>
 VINA RESULT:      -4.9      2.167      6.989
  Name = shuffle_control_ligand
  12 active torsions:
  status: ('A' for Active; 'I' for Inactive)
    1  A    between atoms: C_1  and  C_2
    2  A    between atoms: C_2  and  C_3
    3  A    between atoms: C_3  and  C_4
    4  A    between atoms: C_4  and  C_5
    5  A    between atoms: C_5  and  C_6
    6  A    between atoms: C_5  and  O_8
    7  A    between atoms: C_6  and  C_7
    8  A    between atoms: O_8  and  C_9
    9  A    between atoms: C_9  and  C_11
   10  A    between atoms: C_12  and  C_13
   11  A    between atoms: C_16  and  O_17
   12  A    between atoms: O_17  and  C_18
                            x       y       z     vdW  Elec       q    Type
                         _______ _______ _______ _____ _____    ______ ____

>  <TORSDO>
F 9

$$$$
shuffle_control_ligand
 OpenBabel10092621093D

 20 20  0  0  1  0  0  0  0  0999 V2000
    5.2580   -5.4800    1.7660 C   0  0  0  0  0  0  0  0  0  0  0  0
    4.6390   -4.8300    2.5660 O   0  0  0  0  0  0  0  0  0  0  0  0
    5.8760   -6.7960    2.0550 C   0  0  0  0  0  3  0  0  0  0  0  0
    7.0170   -6.8780    2.7460 C   0  0  0  0  0  3  0  0  0  0  0  0
    7.7110   -8.1520    3.0500 C   0  0  0  0  0  0  0  0  0  0  0  0
    9.0160   -8.1990    3.4630 C   0  0  0  0  0  3  0  0  0  0  0  0
    9.6280   -9.4170    3.7400 C   0  0  0  0  0  3  0  0  0  0  0  0
    8.9360  -10.5900    3.6010 C   0  0  0  0  0  0  0  0  0  0  0  0
    7.6270  -10.5500    3.1840 C   0  0  0  0  0  3  0  0  0  0  0  0
    7.0150   -9.3340    2.9060 C   0  0  0  0  0  3  0  0  0  0  0  0
    9.4770  -11.8150    3.8620 O   0  0  0  0  0  0  0  0  0  0  0  0
   10.4730  -12.3450    3.0090 C   0  0  0  0  0  1  0  0  0  0  0  0
    5.4480   -5.0560    0.5120 O   0  0  0  0  0  0  0  0  0  0  0  0
    4.9700   -5.8150   -0.5790 C   0  0  1  0  0  3  0  0  0  0  0  0
    3.7060   -5.1810   -1.1390 C   0  0  0  0  0  2  0  0  0  0  0  0
    3.1300   -5.8670   -2.3290 C   0  0  0  0  0  1  0  0  0  0  0  0
    6.0310   -5.8320   -1.6550 C   0  0  0  0  0  2  0  0  0  0  0  0
    6.7170   -7.1510   -1.8100 C   0  0  0  0  0  2  0  0  0  0  0  0
    8.2600   -8.7160   -0.6290 C   0  0  0  0  0  1  0  0  0  0  0  0
    7.9150   -7.2790   -0.9060 C   0  0  0  0  0  2  0  0  0  0  0  0
  1  3  1  0  0  0  0
  1  2  2  0  0  0  0
  3  4  2  0  0  0  0
  4  5  1  0  0  0  0
  5  6  1  0  0  0  0
  6  7  2  0  0  0  0
  8  7  1  0  0  0  0
  8 11  1  0  0  0  0
  9  8  2  0  0  0  0
 10  5  2  0  0  0  0
 10  9  1  0  0  0  0
 12 11  1  0  0  0  0
 13  1  1  0  0  0  0
 14 17  1  6  0  0  0
 14 13  1  0  0  0  0
 15 14  1  0  0  0  0
 16 15  1  0  0  0  0
 18 17  1  0  0  0  0
 18 20  1  0  0  0  0
 20 19  1  0  0  0  0
M  END
>  <MODEL>
3

>  <REMARK>
 VINA RESULT:      -4.8      2.435      3.717
  Name = shuffle_control_ligand
  12 active torsions:
  status: ('A' for Active; 'I' for Inactive)
    1  A    between atoms: C_1  and  C_2
    2  A    between atoms: C_2  and  C_3
    3  A    between atoms: C_3  and  C_4
    4  A    between atoms: C_4  and  C_5
    5  A    between atoms: C_5  and  C_6
    6  A    between atoms: C_5  and  O_8
    7  A    between atoms: C_6  and  C_7
    8  A    between atoms: O_8  and  C_9
    9  A    between atoms: C_9  and  C_11
   10  A    between atoms: C_12  and  C_13
   11  A    between atoms: C_16  and  O_17
   12  A    between atoms: O_17  and  C_18
                            x       y       z     vdW  Elec       q    Type
                         _______ _______ _______ _____ _____    ______ ____

>  <TORSDO>
F 9

$$$$
shuffle_control_ligand
 OpenBabel10092621093D

 20 20  0  0  1  0  0  0  0  0999 V2000
   10.9380   -7.1370    3.9190 C   0  0  0  0  0  0  0  0  0  0  0  0
   11.9290   -6.5590    3.5580 O   0  0  0  0  0  0  0  0  0  0  0  0
    9.5620   -6.7790    3.5020 C   0  0  0  0  0  3  0  0  0  0  0  0
    9.1830   -6.8940    2.2250 C   0  0  0  0  0  3  0  0  0  0  0  0
    7.8360   -6.5300    1.7250 C   0  0  0  0  0  0  0  0  0  0  0  0
    7.4450   -6.7590    0.4320 C   0  0  0  0  0  3  0  0  0  0  0  0
    6.1700   -6.4030    0.0050 C   0  0  0  0  0  3  0  0  0  0  0  0
    5.2860   -5.8140    0.8690 C   0  0  0  0  0  0  0  0  0  0  0  0
    5.6740   -5.5790    2.1660 C   0  0  0  0  0  3  0  0  0  0  0  0
    6.9480   -5.9330    2.5950 C   0  0  0  0  0  3  0  0  0  0  0  0
    4.0210   -5.4470    0.5130 O   0  0  0  0  0  0  0  0  0  0  0  0
    3.6810   -5.3120   -0.8530 C   0  0  0  0  0  1  0  0  0  0  0  0
   10.9970   -8.1780    4.7550 O   0  0  0  0  0  0  0  0  0  0  0  0
   10.5670   -9.4560    4.3350 C   0  0  1  0  0  3  0  0  0  0  0  0
   11.7700  -10.3600    4.1080 C   0  0  0  0  0  2  0  0  0  0  0  0
   12.1630  -10.5410    2.6830 C   0  0  0  0  0  1  0  0  0  0  0  0
    9.7000  -10.0530    5.4200 C   0  0  0  0  0  2  0  0  0  0  0  0
    8.2380  -10.0320    5.1070 C   0  0  0  0  0  2  0  0  0  0  0  0
    6.7170   -9.6420    3.1690 C   0  0  0  0  0  1  0  0  0  0  0  0
    7.9620  -10.3280    3.6570 C   0  0  0  0  0  2  0  0  0  0  0  0
  1 13  1  0  0  0  0
  2  1  2  0  0  0  0
  3  1  1  0  0  0  0
  4  3  2  0  0  0  0
  5  4  1  0  0  0  0
  5 10  1  0  0  0  0
  6  5  2  0  0  0  0
  7  6  1  0  0  0  0
  7  8  2  0  0  0  0
  8  9  1  0  0  0  0
  9 10  2  0  0  0  0
 11  8  1  0  0  0  0
 12 11  1  0  0  0  0
 14 15  1  1  0  0  0
 14 13  1  0  0  0  0
 14 17  1  0  0  0  0
 16 15  1  0  0  0  0
 18 17  1  0  0  0  0
 19 20  1  0  0  0  0
 20 18  1  0  0  0  0
M  END
>  <MODEL>
4

>  <REMARK>
 VINA RESULT:      -4.8      2.570      8.349
  Name = shuffle_control_ligand
  12 active torsions:
  status: ('A' for Active; 'I' for Inactive)
    1  A    between atoms: C_1  and  C_2
    2  A    between atoms: C_2  and  C_3
    3  A    between atoms: C_3  and  C_4
    4  A    between atoms: C_4  and  C_5
    5  A    between atoms: C_5  and  C_6
    6  A    between atoms: C_5  and  O_8
    7  A    between atoms: C_6  and  C_7
    8  A    between atoms: O_8  and  C_9
    9  A    between atoms: C_9  and  C_11
   10  A    between atoms: C_12  and  C_13
   11  A    between atoms: C_16  and  O_17
   12  A    between atoms: O_17  and  C_18
                            x       y       z     vdW  Elec       q    Type
                         _______ _______ _______ _____ _____    ______ ____

>  <TORSDO>
F 9

$$$$
shuffle_control_ligand
 OpenBabel10092621093D

 20 20  0  0  1  0  0  0  0  0999 V2000
    5.4310   -5.4560    2.0840 C   0  0  0  0  0  0  0  0  0  0  0  0
    4.7800   -4.7200    2.7780 O   0  0  0  0  0  0  0  0  0  0  0  0
    5.4200   -5.4360    0.6020 C   0  0  0  0  0  3  0  0  0  0  0  0
    4.2670   -5.4430   -0.0730 C   0  0  0  0  0  3  0  0  0  0  0  0
    4.1730   -5.4530   -1.5520 C   0  0  0  0  0  0  0  0  0  0  0  0
    2.9740   -5.4560   -2.2140 C   0  0  0  0  0  3  0  0  0  0  0  0
    2.9320   -5.4640   -3.6040 C   0  0  0  0  0  3  0  0  0  0  0  0
    4.0900   -5.4730   -4.3350 C   0  0  0  0  0  0  0  0  0  0  0  0
    5.2970   -5.4730   -3.6770 C   0  0  0  0  0  3  0  0  0  0  0  0
    5.3400   -5.4660   -2.2870 C   0  0  0  0  0  3  0  0  0  0  0  0
    4.1160   -5.4750   -5.6990 O   0  0  0  0  0  0  0  0  0  0  0  0
    4.4770   -4.3020   -6.4020 C   0  0  0  0  0  1  0  0  0  0  0  0
    6.2400   -6.3820    2.6080 O   0  0  0  0  0  0  0  0  0  0  0  0
    7.4500   -6.7210    1.9610 C   0  0  1  0  0  3  0  0  0  0  0  0
    8.6310   -6.1820    2.7540 C   0  0  0  0  0  2  0  0  0  0  0  0
    9.8810   -6.9850    2.6490 C   0  0  0  0  0  1  0  0  0  0  0  0
    7.5510   -8.2270    1.8900 C   0  0  0  0  0  2  0  0  0  0  0  0
    6.5960   -8.9420    2.7900 C   0  0  0  0  0  2  0  0  0  0  0  0
    8.0630  -10.9320    3.1280 C   0  0  0  0  0  1  0  0  0  0  0  0
    7.3050   -9.8170    3.7910 C   0  0  0  0  0  2  0  0  0  0  0  0
  1 13  1  0  0  0  0
  1  2  2  0  0  0  0
  3  1  1  0  0  0  0
  4  3  2  0  0  0  0
  5  4  1  0  0  0  0
  6  5  1  0  0  0  0
  7  6  2  0  0  0  0
  8  9  2  0  0  0  0
  8  7  1  0  0  0  0
  9 10  1  0  0  0  0
 10  5  2  0  0  0  0
 11  8  1  0  0  0  0
 12 11  1  0  0  0  0
 14 17  1  1  0  0  0
 14 13  1  0  0  0  0
 14 15  1  0  0  0  0
 16 15  1  0  0  0  0
 17 18  1  0  0  0  0
 18 20  1  0  0  0  0
 19 20  1  0  0  0  0
M  END
>  <MODEL>
5

>  <REMARK>
 VINA RESULT:      -4.8      2.198      7.187
  Name = shuffle_control_ligand
  12 active torsions:
  status: ('A' for Active; 'I' for Inactive)
    1  A    between atoms: C_1  and  C_2
    2  A    between atoms: C_2  and  C_3
    3  A    between atoms: C_3  and  C_4
    4  A    between atoms: C_4  and  C_5
    5  A    between atoms: C_5  and  C_6
    6  A    between atoms: C_5  and  O_8
    7  A    between atoms: C_6  and  C_7
    8  A    between atoms: O_8  and  C_9
    9  A    between atoms: C_9  and  C_11
   10  A    between atoms: C_12  and  C_13
   11  A    between atoms: C_16  and  O_17
   12  A    between atoms: O_17  and  C_18
                            x       y       z     vdW  Elec       q    Type
                         _______ _______ _______ _____ _____    ______ ____

>  <TORSDO>
F 9

$$$$
shuffle_control_ligand
 OpenBabel10092621093D

 20 20  0  0  1  0  0  0  0  0999 V2000
    5.3940   -5.7050    1.4810 C   0  0  0  0  0  0  0  0  0  0  0  0
    5.0280   -5.0020    2.3850 O   0  0  0  0  0  0  0  0  0  0  0  0
    5.0540   -5.4800    0.0550 C   0  0  0  0  0  3  0  0  0  0  0  0
    3.7790   -5.3950   -0.3380 C   0  0  0  0  0  3  0  0  0  0  0  0
    3.3590   -5.2000   -1.7460 C   0  0  0  0  0  0  0  0  0  0  0  0
    4.2540   -4.9520   -2.7530 C   0  0  0  0  0  3  0  0  0  0  0  0
    3.8160   -4.7760   -4.0620 C   0  0  0  0  0  3  0  0  0  0  0  0
    2.4820   -4.8450   -4.3640 C   0  0  0  0  0  0  0  0  0  0  0  0
    1.5790   -5.0910   -3.3570 C   0  0  0  0  0  3  0  0  0  0  0  0
    2.0150   -5.2650   -2.0490 C   0  0  0  0  0  3  0  0  0  0  0  0
    1.9900   -4.6880   -5.6270 O   0  0  0  0  0  0  0  0  0  0  0  0
    1.9100   -5.7990   -6.4990 C   0  0  0  0  0  1  0  0  0  0  0  0
    6.1580   -6.7820    1.6910 O   0  0  0  0  0  0  0  0  0  0  0  0
    7.5030   -6.7980    1.2610 C   0  0  1  0  0  3  0  0  0  0  0  0
    8.4260   -7.0220    2.4490 C   0  0  0  0  0  2  0  0  0  0  0  0
    9.2440   -5.8420    2.8440 C   0  0  0  0  0  1  0  0  0  0  0  0
    7.6800   -7.9330    0.2790 C   0  0  0  0  0  2  0  0  0  0  0  0
    8.3390   -7.5300   -1.0010 C   0  0  0  0  0  2  0  0  0  0  0  0
    7.7520   -6.1050   -2.9630 C   0  0  0  0  0  1  0  0  0  0  0  0
    7.3390   -7.2610   -2.0960 C   0  0  0  0  0  2  0  0  0  0  0  0
  1 13  1  0  0  0  0
  1  2  2  0  0  0  0
  3  1  1  0  0  0  0
  4  3  2  0  0  0  0
  5  4  1  0  0  0  0
  6  5  2  0  0  0  0
  7  6  1  0  0  0  0
  8  7  2  0  0  0  0
  8  9  1  0  0  0  0
  9 10  2  0  0  0  0
 10  5  1  0  0  0  0
 11  8  1  0  0  0  0
 12 11  1  0  0  0  0
 14 17  1  6  0  0  0
 14 13  1  0  0  0  0
 14 15  1  0  0  0  0
 15 16  1  0  0  0  0
 18 17  1  0  0  0  0
 19 20  1  0  0  0  0
 20 18  1  0  0  0  0
M  END
>  <MODEL>
6

>  <REMARK>
 VINA RESULT:      -4.7      2.007      6.809
  Name = shuffle_control_ligand
  12 active torsions:
  status: ('A' for Active; 'I' for Inactive)
    1  A    between atoms: C_1  and  C_2
    2  A    between atoms: C_2  and  C_3
    3  A    between atoms: C_3  and  C_4
    4  A    between atoms: C_4  and  C_5
    5  A    between atoms: C_5  and  C_6
    6  A    between atoms: C_5  and  O_8
    7  A    between atoms: C_6  and  C_7
    8  A    between atoms: O_8  and  C_9
    9  A    between atoms: C_9  and  C_11
   10  A    between atoms: C_12  and  C_13
   11  A    between atoms: C_16  and  O_17
   12  A    between atoms: O_17  and  C_18
                            x       y       z     vdW  Elec       q    Type
                         _______ _______ _______ _____ _____    ______ ____

>  <TORSDO>
F 9

$$$$
shuffle_control_ligand
 OpenBabel10092621093D

 20 20  0  0  1  0  0  0  0  0999 V2000
    5.8610   -5.5960    1.6530 C   0  0  0  0  0  0  0  0  0  0  0  0
    5.3970   -5.0660    2.6270 O   0  0  0  0  0  0  0  0  0  0  0  0
    5.2720   -5.5140    0.2950 C   0  0  0  0  0  3  0  0  0  0  0  0
    3.9530   -5.3780    0.1290 C   0  0  0  0  0  3  0  0  0  0  0  0
    3.2870   -5.3180   -1.1930 C   0  0  0  0  0  0  0  0  0  0  0  0
    1.9250   -5.2370   -1.3290 C   0  0  0  0  0  3  0  0  0  0  0  0
    1.3410   -5.1810   -2.5900 C   0  0  0  0  0  3  0  0  0  0  0  0
    2.1180   -5.2090   -3.7180 C   0  0  0  0  0  0  0  0  0  0  0  0
    3.4830   -5.2930   -3.5880 C   0  0  0  0  0  3  0  0  0  0  0  0
    4.0680   -5.3500   -2.3290 C   0  0  0  0  0  3  0  0  0  0  0  0
    1.6060   -5.1510   -4.9810 O   0  0  0  0  0  0  0  0  0  0  0  0
    2.4740   -5.1870   -6.0980 C   0  0  0  0  0  1  0  0  0  0  0  0
    6.9790   -6.3270    1.7150 O   0  0  0  0  0  0  0  0  0  0  0  0
    7.2140   -7.1800    2.8160 C   0  0  1  0  0  3  0  0  0  0  0  0
    6.8410   -8.6100    2.4550 C   0  0  0  0  0  2  0  0  0  0  0  0
    7.7860   -9.2930    1.5280 C   0  0  0  0  0  1  0  0  0  0  0  0
    8.6850   -7.1260    3.1600 C   0  0  0  0  0  2  0  0  0  0  0  0
    9.3830   -5.9060    2.6500 C   0  0  0  0  0  2  0  0  0  0  0  0
   11.1270   -7.6580    2.3140 C   0  0  0  0  0  1  0  0  0  0  0  0
   10.8060   -6.1910    2.2490 C   0  0  0  0  0  2  0  0  0  0  0  0
  1 13  1  0  0  0  0
  1  2  2  0  0  0  0
  3  1  1  0  0  0  0
  4  3  2  0  0  0  0
  5  4  1  0  0  0  0
  6  5  1  0  0  0  0
  7  6  2  0  0  0  0
  8  9  2  0  0  0  0
  8  7  1  0  0  0  0
  9 10  1  0  0  0  0
 10  5  2  0  0  0  0
 11  8  1  0  0  0  0
 12 11  1  0  0  0  0
 13 14  1  0  0  0  0
 14 15  1  6  0  0  0
 14 17  1  0  0  0  0
 16 15  1  0  0  0  0
 18 17  1  0  0  0  0
 20 19  1  0  0  0  0
 20 18  1  0  0  0  0
M  END
>  <MODEL>
7

>  <REMARK>
 VINA RESULT:      -4.7      2.303      7.171
  Name = shuffle_control_ligand
  12 active torsions:
  status: ('A' for Active; 'I' for Inactive)
    1  A    between atoms: C_1  and  C_2
    2  A    between atoms: C_2  and  C_3
    3  A    between atoms: C_3  and  C_4
    4  A    between atoms: C_4  and  C_5
    5  A    between atoms: C_5  and  C_6
    6  A    between atoms: C_5  and  O_8
    7  A    between atoms: C_6  and  C_7
    8  A    between atoms: O_8  and  C_9
    9  A    between atoms: C_9  and  C_11
   10  A    between atoms: C_12  and  C_13
   11  A    between atoms: C_16  and  O_17
   12  A    between atoms: O_17  and  C_18
                            x       y       z     vdW  Elec       q    Type
                         _______ _______ _______ _____ _____    ______ ____

>  <TORSDO>
F 9

$$$$
shuffle_control_ligand
 OpenBabel10092621093D

 20 20  0  0  1  0  0  0  0  0999 V2000
    7.4300   -6.3280    2.6360 C   0  0  0  0  0  0  0  0  0  0  0  0
    8.4080   -5.8520    3.1510 O   0  0  0  0  0  0  0  0  0  0  0  0
    6.6730   -5.6920    1.5320 C   0  0  0  0  0  3  0  0  0  0  0  0
    6.0890   -6.4350    0.5870 C   0  0  0  0  0  3  0  0  0  0  0  0
    5.3400   -5.8740   -0.5620 C   0  0  0  0  0  0  0  0  0  0  0  0
    5.8770   -5.7880   -1.8200 C   0  0  0  0  0  3  0  0  0  0  0  0
    5.1380   -5.2560   -2.8710 C   0  0  0  0  0  3  0  0  0  0  0  0
    3.8610   -4.8050   -2.6650 C   0  0  0  0  0  0  0  0  0  0  0  0
    3.3180   -4.8860   -1.4050 C   0  0  0  0  0  3  0  0  0  0  0  0
    4.0550   -5.4170   -0.3540 C   0  0  0  0  0  3  0  0  0  0  0  0
    3.0830   -4.2790   -3.6540 O   0  0  0  0  0  0  0  0  0  0  0  0
    2.1470   -5.0960   -4.3300 C   0  0  0  0  0  1  0  0  0  0  0  0
    6.9290   -7.5030    3.0300 O   0  0  0  0  0  0  0  0  0  0  0  0
    7.7620   -8.6400    3.1220 C   0  0  1  0  0  3  0  0  0  0  0  0
    7.2800   -9.5490    4.2420 C   0  0  0  0  0  2  0  0  0  0  0  0
    7.3900  -11.0080    3.9620 C   0  0  0  0  0  1  0  0  0  0  0  0
    7.6940   -9.3920    1.8120 C   0  0  0  0  0  2  0  0  0  0  0  0
    8.9140   -9.2430    0.9620 C   0  0  0  0  0  2  0  0  0  0  0  0
    9.2570   -7.6140   -0.8960 C   0  0  0  0  0  1  0  0  0  0  0  0
    8.5760   -8.8810   -0.4600 C   0  0  0  0  0  2  0  0  0  0  0  0
  1 13  1  0  0  0  0
  1  2  2  0  0  0  0
  3  1  1  0  0  0  0
  4  3  2  0  0  0  0
  5 10  1  0  0  0  0
  5  4  1  0  0  0  0
  6  5  2  0  0  0  0
  7  8  2  0  0  0  0
  7  6  1  0  0  0  0
  8  9  1  0  0  0  0
  9 10  2  0  0  0  0
 11  8  1  0  0  0  0
 12 11  1  0  0  0  0
 13 14  1  0  0  0  0
 14 17  1  6  0  0  0
 14 15  1  0  0  0  0
 16 15  1  0  0  0  0
 18 17  1  0  0  0  0
 19 20  1  0  0  0  0
 20 18  1  0  0  0  0
M  END
>  <MODEL>
8

>  <REMARK>
 VINA RESULT:      -4.6      1.961      6.946
  Name = shuffle_control_ligand
  12 active torsions:
  status: ('A' for Active; 'I' for Inactive)
    1  A    between atoms: C_1  and  C_2
    2  A    between atoms: C_2  and  C_3
    3  A    between atoms: C_3  and  C_4
    4  A    between atoms: C_4  and  C_5
    5  A    between atoms: C_5  and  C_6
    6  A    between atoms: C_5  and  O_8
    7  A    between atoms: C_6  and  C_7
    8  A    between atoms: O_8  and  C_9
    9  A    between atoms: C_9  and  C_11
   10  A    between atoms: C_12  and  C_13
   11  A    between atoms: C_16  and  O_17
   12  A    between atoms: O_17  and  C_18
                            x       y       z     vdW  Elec       q    Type
                         _______ _______ _______ _____ _____    ______ ____

>  <TORSDO>
F 9

$$$$
shuffle_control_ligand
 OpenBabel10092621093D

 20 20  0  0  1  0  0  0  0  0999 V2000
    9.5630   -9.3000    1.2370 C   0  0  0  0  0  0  0  0  0  0  0  0
   10.6700   -9.3220    0.7670 O   0  0  0  0  0  0  0  0  0  0  0  0
    8.3830   -8.6940    0.5740 C   0  0  0  0  0  3  0  0  0  0  0  0
    8.0970   -7.3990    0.7380 C   0  0  0  0  0  3  0  0  0  0  0  0
    6.9230   -6.7280    0.1330 C   0  0  0  0  0  0  0  0  0  0  0  0
    6.7230   -6.6750   -1.2210 C   0  0  0  0  0  3  0  0  0  0  0  0
    5.6050   -6.0350   -1.7470 C   0  0  0  0  0  3  0  0  0  0  0  0
    4.6880   -5.4450   -0.9190 C   0  0  0  0  0  0  0  0  0  0  0  0
    4.8850   -5.4920    0.4400 C   0  0  0  0  0  3  0  0  0  0  0  0
    6.0020   -6.1300    0.9670 C   0  0  0  0  0  3  0  0  0  0  0  0
    3.5700   -4.8080   -1.3730 O   0  0  0  0  0  0  0  0  0  0  0  0
    2.2880   -5.3010   -1.0340 C   0  0  0  0  0  1  0  0  0  0  0  0
    9.2960   -9.8340    2.4340 O   0  0  0  0  0  0  0  0  0  0  0  0
    9.0230   -9.0010    3.5420 C   0  0  1  0  0  3  0  0  0  0  0  0
    7.8840   -9.5860    4.3630 C   0  0  0  0  0  2  0  0  0  0  0  0
    6.7180  -10.0670    3.5700 C   0  0  0  0  0  1  0  0  0  0  0  0
   10.2630   -8.9260    4.4030 C   0  0  0  0  0  2  0  0  0  0  0  0
   11.1030   -7.7140    4.1530 C   0  0  0  0  0  2  0  0  0  0  0  0
   10.5520   -5.6980    2.7910 C   0  0  0  0  0  1  0  0  0  0  0  0
   10.2760   -6.4590    4.0570 C   0  0  0  0  0  2  0  0  0  0  0  0
  1 13  1  0  0  0  0
  2  1  2  0  0  0  0
  3  4  2  0  0  0  0
  3  1  1  0  0  0  0
  5  4  1  0  0  0  0
  5 10  1  0  0  0  0
  6  5  2  0  0  0  0
  7  6  1  0  0  0  0
  7  8  2  0  0  0  0
  8  9  1  0  0  0  0
  9 10  2  0  0  0  0
 11 12  1  0  0  0  0
 11  8  1  0  0  0  0
 13 14  1  0  0  0  0
 14 15  1  1  0  0  0
 14 17  1  0  0  0  0
 16 15  1  0  0  0  0
 18 17  1  0  0  0  0
 19 20  1  0  0  0  0
 20 18  1  0  0  0  0
M  END
>  <MODEL>
9

>  <REMARK>
 VINA RESULT:      -4.6      2.165      7.557
  Name = shuffle_control_ligand
  12 active torsions:
  status: ('A' for Active; 'I' for Inactive)
    1  A    between atoms: C_1  and  C_2
    2  A    between atoms: C_2  and  C_3
    3  A    between atoms: C_3  and  C_4
    4  A    between atoms: C_4  and  C_5
    5  A    between atoms: C_5  and  C_6
    6  A    between atoms: C_5  and  O_8
    7  A    between atoms: C_6  and  C_7
    8  A    between atoms: O_8  and  C_9
    9  A    between atoms: C_9  and  C_11
   10  A    between atoms: C_12  and  C_13
   11  A    between atoms: C_16  and  O_17
   12  A    between atoms: O_17  and  C_18
                            x       y       z     vdW  Elec       q    Type
                         _______ _______ _______ _____ _____    ______ ____

>  <TORSDO>
F 9

$$$$
