s3_orig_f12_dockpose1
     RDKit          3D

 20 20  0  0  0  0  0  0  0  0999 V2000
   -4.7910   -0.3190    0.2360 C   0  0  0  0  0  0  0  0  0  0  0  0
   -5.3740   -1.5350   -0.4520 C   0  0  0  0  0  0  0  0  0  0  0  0
   -6.8380   -1.3510   -0.7600 C   0  0  0  0  0  0  0  0  0  0  0  0
   -7.6790   -2.4780   -0.2570 C   0  0  0  0  0  0  0  0  0  0  0  0
   -8.5980   -2.1230    0.9010 C   0  0  2  0  0  0  0  0  0  0  0  0
   -8.5280   -0.6340    1.1840 C   0  0  0  0  0  0  0  0  0  0  0  0
   -9.6040    0.1830    0.4780 C   0  0  0  0  0  0  0  0  0  0  0  0
   -8.2990   -2.8070    1.9890 O   0  0  0  0  0  0  0  0  0  0  0  0
   -7.7130   -3.4680    2.8570 C   0  0  0  0  0  0  0  0  0  0  0  0
   -8.3560   -3.8950    3.7810 O   0  0  0  0  0  0  0  0  0  0  0  0
   -6.2500   -3.6480    2.7070 C   0  0  0  0  0  0  0  0  0  0  0  0
   -5.3820   -2.7140    3.0900 C   0  0  0  0  0  0  0  0  0  0  0  0
   -3.9150   -2.7950    2.8760 C   0  0  0  0  0  0  0  0  0  0  0  0
   -3.0610   -2.2850    3.8390 C   0  0  0  0  0  0  0  0  0  0  0  0
   -1.6870   -2.2730    3.6290 C   0  0  0  0  0  0  0  0  0  0  0  0
   -1.1430   -2.8240    2.4870 C   0  0  0  0  0  0  0  0  0  0  0  0
    0.2150   -2.8500    2.2440 O   0  0  0  0  0  0  0  0  0  0  0  0
    1.0810   -2.9280    3.3610 C   0  0  0  0  0  0  0  0  0  0  0  0
   -1.9890   -3.3750    1.5610 C   0  0  0  0  0  0  0  0  0  0  0  0
   -3.3700   -3.3600    1.7520 C   0  0  0  0  0  0  0  0  0  0  0  0
  2  1  1  0
  3  2  1  0
  4  3  1  0
  5  4  1  6
  6  5  1  0
  7  6  1  0
  8  5  1  0
  9  8  1  0
 10  9  2  0
 11  9  1  0
 12 11  2  3
 13 12  1  0
 14 13  1  0
 15 14  2  0
 16 15  1  0
 17 16  1  0
 18 17  1  0
 19 16  2  0
 20 19  1  0
 20 13  2  0
M  END
$$$$
