ox2_shuffle_esm0_pose0_reference
     RDKit          3D

 17 18  0  0  0  0  0  0  0  0999 V2000
   -6.0040   -3.5600    1.0190 C   0  0  0  0  0  0  0  0  0  0  0  0
   -5.1440   -3.5410   -0.1240 O   0  0  0  0  0  0  0  0  0  0  0  0
   -3.7990   -3.5190    0.0150 C   0  0  0  0  0  0  0  0  0  0  0  0
   -3.1820   -3.0990    1.1870 C   0  0  0  0  0  0  0  0  0  0  0  0
   -1.8120   -3.0760    1.2650 C   0  0  0  0  0  0  0  0  0  0  0  0
   -1.0360   -3.4580    0.1950 C   0  0  0  0  0  0  0  0  0  0  0  0
    0.4510   -3.4320    0.2260 C   0  0  0  0  0  0  0  0  0  0  0  0
    1.0290   -4.2060   -0.4940 O   0  0  0  0  0  0  0  0  0  0  0  0
    1.2710   -2.4920    1.0160 C   0  0  0  0  0  0  0  0  0  0  0  0
    2.6550   -2.5020    0.8470 C   0  0  0  0  0  0  0  0  0  0  0  0
    3.4550   -1.6270    1.5460 C   0  0  0  0  0  0  0  0  0  0  0  0
    2.9000   -0.7260    2.4320 C   0  0  0  0  0  0  0  0  0  0  0  0
    1.5290   -0.7010    2.5970 C   0  0  0  0  0  0  0  0  0  0  0  0
    0.7290   -1.5750    1.8830 C   0  0  0  0  0  0  0  0  0  0  0  0
   -1.6540   -3.8970   -0.9680 C   0  0  0  0  0  0  0  0  0  0  0  0
   -0.8770   -4.2980   -2.0100 O   0  0  0  0  0  0  0  0  0  0  0  0
   -3.0330   -3.9150   -1.0530 C   0  0  0  0  0  0  0  0  0  0  0  0
  2  1  1  0
  3  2  1  0
  4  3  1  0
  5  4  2  0
  6  5  1  0
  7  6  1  0
  8  7  2  0
  9  7  1  0
 10  9  2  0
 11 10  1  0
 12 11  2  0
 13 12  1  0
 14 13  2  0
 14  9  1  0
 15  6  2  0
 16 15  1  0
 17 15  1  0
 17  3  2  0
M  END
>  <structure>  (1) 
ox2_shuffle_esm0

>  <pose>  (1) 
0

>  <is_reference>  (1) 
1

>  <rmsd_to_reference_A>  (1) 
0.000

>  <vina_score>  (1) 


$$$$
