bgox31_2_dockpose6
     RDKit          3D

 17 18  0  0  0  0  0  0  0  0999 V2000
   -7.2880    5.2290    1.3810 C   0  0  0  0  0  0  0  0  0  0  0  0
   -7.9090    6.4640    1.6350 O   0  0  0  0  0  0  0  0  0  0  0  0
   -7.8250    7.3940    0.6750 C   0  0  0  0  0  0  0  0  0  0  0  0
   -6.9270    8.4510    0.8410 C   0  0  0  0  0  0  0  0  0  0  0  0
   -6.7830    9.3950   -0.1440 C   0  0  0  0  0  0  0  0  0  0  0  0
   -7.5420    9.2770   -1.2760 C   0  0  0  0  0  0  0  0  0  0  0  0
   -7.3450   10.3020   -2.3550 C   0  0  0  0  0  0  0  0  0  0  0  0
   -8.2490   11.0570   -2.5840 O   0  0  0  0  0  0  0  0  0  0  0  0
   -6.0880   10.4770   -3.0230 C   0  0  0  0  0  0  0  0  0  0  0  0
   -5.5600    9.3750   -3.6540 C   0  0  0  0  0  0  0  0  0  0  0  0
   -4.3240    9.4890   -4.2500 C   0  0  0  0  0  0  0  0  0  0  0  0
   -3.6700   10.6970   -4.2090 C   0  0  0  0  0  0  0  0  0  0  0  0
   -4.1710   11.7390   -3.5910 C   0  0  0  0  0  0  0  0  0  0  0  0
   -5.4130   11.6320   -3.0010 C   0  0  0  0  0  0  0  0  0  0  0  0
   -8.4680    8.2590   -1.4300 C   0  0  0  0  0  0  0  0  0  0  0  0
   -9.2250    8.2450   -2.5380 O   0  0  0  0  0  0  0  0  0  0  0  0
   -8.6050    7.3310   -0.4430 C   0  0  0  0  0  0  0  0  0  0  0  0
  2  1  1  0
  3  2  1  0
  4  3  1  0
  5  4  2  0
  6  5  1  0
  7  6  1  0
  8  7  2  0
  9  7  1  0
 10  9  2  0
 11 10  1  0
 12 11  2  0
 13 12  1  0
 14 13  2  0
 14  9  1  0
 15  6  2  0
 16 15  1  0
 17 15  1  0
 17  3  2  0
M  END
