orig_f12_ligand
     RDKit          3D

 44 44  0  0  0  0  0  0  0  0999 V2000
   -1.5337   -2.0621    8.9676 C   0  0  0  0  0  0  0  0  0  0  0  0
   -0.8315   -2.5067    7.7073 C   0  0  0  0  0  0  0  0  0  0  0  0
   -0.1367   -1.3657    7.0205 C   0  0  0  0  0  0  0  0  0  0  0  0
    0.5406   -1.8029    5.7632 C   0  0  0  0  0  0  0  0  0  0  0  0
    1.2128   -0.6786    5.0053 C   0  0  2  0  0  0  0  0  0  0  0  0
    1.7415   -1.1652    3.6648 C   0  0  0  0  0  0  0  0  0  0  0  0
    3.2298   -1.4598    3.6291 C   0  0  0  0  0  0  0  0  0  0  0  0
    2.2775   -0.1873    5.7833 O   0  0  0  0  0  0  0  0  0  0  0  0
    2.2800    1.0887    6.1418 C   0  0  0  0  0  0  0  0  0  0  0  0
    1.3057    1.8028    6.0412 O   0  0  0  0  0  0  0  0  0  0  0  0
    3.5954    1.5385    6.6151 C   0  0  0  0  0  0  0  0  0  0  0  0
    3.8894    2.8438    6.5886 C   0  0  0  0  0  0  0  0  0  0  0  0
    5.2251    3.3606    6.9335 C   0  0  0  0  0  0  0  0  0  0  0  0
    6.2039    2.5571    7.4728 C   0  0  0  0  0  0  0  0  0  0  0  0
    7.4612    3.0684    7.7506 C   0  0  0  0  0  0  0  0  0  0  0  0
    7.7351    4.3856    7.4984 C   0  0  0  0  0  0  0  0  0  0  0  0
    8.9603    4.9398    7.7360 O   0  0  0  0  0  0  0  0  0  0  0  0
    9.8881    4.2687    8.5799 C   0  0  0  0  0  0  0  0  0  0  0  0
    6.7594    5.1996    6.9543 C   0  0  0  0  0  0  0  0  0  0  0  0
    5.4973    4.6837    6.6857 C   0  0  0  0  0  0  0  0  0  0  0  0
   -2.6194   -2.1922    8.8478 H   0  0  0  0  0  0  0  0  0  0  0  0
   -1.1832   -2.6683    9.8160 H   0  0  0  0  0  0  0  0  0  0  0  0
   -1.3102   -1.0020    9.1574 H   0  0  0  0  0  0  0  0  0  0  0  0
   -0.0859   -3.2725    7.9671 H   0  0  0  0  0  0  0  0  0  0  0  0
   -1.5894   -2.9083    7.0186 H   0  0  0  0  0  0  0  0  0  0  0  0
   -0.8799   -0.5930    6.7742 H   0  0  0  0  0  0  0  0  0  0  0  0
    0.6314   -0.9732    7.7031 H   0  0  0  0  0  0  0  0  0  0  0  0
    1.3045   -2.5504    6.0234 H   0  0  0  0  0  0  0  0  0  0  0  0
   -0.2411   -2.2092    5.1044 H   0  0  0  0  0  0  0  0  0  0  0  0
    0.4774    0.1166    4.8135 H   0  0  0  0  0  0  0  0  0  0  0  0
    1.2048   -2.0885    3.4015 H   0  0  0  0  0  0  0  0  0  0  0  0
    1.5744   -0.3436    2.9528 H   0  0  0  0  0  0  0  0  0  0  0  0
    3.5103   -2.0394    4.5209 H   0  0  0  0  0  0  0  0  0  0  0  0
    3.4672   -2.0399    2.7251 H   0  0  0  0  0  0  0  0  0  0  0  0
    3.7907   -0.5136    3.6154 H   0  0  0  0  0  0  0  0  0  0  0  0
    4.3312    0.8104    6.9873 H   0  0  0  0  0  0  0  0  0  0  0  0
    3.1043    3.5575    6.2983 H   0  0  0  0  0  0  0  0  0  0  0  0
    5.9861    1.5000    7.6850 H   0  0  0  0  0  0  0  0  0  0  0  0
    8.2392    2.4160    8.1738 H   0  0  0  0  0  0  0  0  0  0  0  0
    9.3631    3.8764    9.4633 H   0  0  0  0  0  0  0  0  0  0  0  0
   10.3501    3.4366    8.0283 H   0  0  0  0  0  0  0  0  0  0  0  0
   10.6688    4.9742    8.9006 H   0  0  0  0  0  0  0  0  0  0  0  0
    6.9816    6.2543    6.7343 H   0  0  0  0  0  0  0  0  0  0  0  0
    4.7143    5.3369    6.2734 H   0  0  0  0  0  0  0  0  0  0  0  0
  2  1  1  0
  3  2  1  0
  4  3  1  0
  5  4  1  0
  6  5  1  0
  7  6  1  0
  8  5  1  0
  9  8  1  0
 10  9  2  0
 11  9  1  0
 12 11  2  3
 13 12  1  0
 14 13  1  0
 15 14  2  0
 16 15  1  0
 17 16  1  0
 18 17  1  0
 19 16  2  0
 20 19  1  0
 20 13  2  0
  1 21  1  0
  1 22  1  0
  1 23  1  0
  2 24  1  0
  2 25  1  0
  3 26  1  0
  3 27  1  0
  4 28  1  0
  4 29  1  0
  5 30  1  6
  6 31  1  0
  6 32  1  0
  7 33  1  0
  7 34  1  0
  7 35  1  0
 11 36  1  0
 12 37  1  0
 14 38  1  0
 15 39  1  0
 18 40  1  0
 18 41  1  0
 18 42  1  0
 19 43  1  0
 20 44  1  0
M  END
$$$$
