orig_f12_ligand
 OpenBabel10092621033D

 20 20  0  0  1  0  0  0  0  0999 V2000
    0.6830   -1.4920    6.3860 C   0  0  0  0  0  0  0  0  0  0  0  0
    0.2430   -2.6200    6.3270 O   0  0  0  0  0  0  0  0  0  0  0  0
    0.4580   -0.5690    7.5050 C   0  0  0  0  0  3  0  0  0  0  0  0
    1.2690   -0.6230    8.5700 C   0  0  0  0  0  3  0  0  0  0  0  0
    1.0380    0.1860    9.7800 C   0  0  0  0  0  0  0  0  0  0  0  0
    1.7410    1.3420   10.0320 C   0  0  0  0  0  3  0  0  0  0  0  0
    1.4730    2.0970   11.1620 C   0  0  0  0  0  3  0  0  0  0  0  0
    0.5080    1.6890   12.0440 C   0  0  0  0  0  0  0  0  0  0  0  0
   -0.2050    0.5310   11.7970 C   0  0  0  0  0  3  0  0  0  0  0  0
    0.0750   -0.2270   10.6670 C   0  0  0  0  0  3  0  0  0  0  0  0
    0.1890    2.4020   13.1650 O   0  0  0  0  0  0  0  0  0  0  0  0
    0.1790    3.8230   13.1200 C   0  0  0  0  0  1  0  0  0  0  0  0
    1.3860   -0.9420    5.4060 O   0  0  0  0  0  0  0  0  0  0  0  0
    2.5190   -1.6140    4.9130 C   0  0  1  0  0  3  0  0  0  0  0  0
    2.6290   -1.3990    3.4120 C   0  0  0  0  0  2  0  0  0  0  0  0
    1.3860   -1.7560    2.6180 C   0  0  0  0  0  1  0  0  0  0  0  0
    3.7430   -1.0850    5.6280 C   0  0  0  0  0  2  0  0  0  0  0  0
    4.0060    0.3670    5.3880 C   0  0  0  0  0  2  0  0  0  0  0  0
    4.8170    0.4740    7.7450 C   0  0  0  0  0  1  0  0  0  0  0  0
    4.0080    1.1540    6.6660 C   0  0  0  0  0  2  0  0  0  0  0  0
  1  3  1  0  0  0  0
  2  1  2  0  0  0  0
  3  4  2  0  0  0  0
  4  5  1  0  0  0  0
  5  6  2  0  0  0  0
  5 10  1  0  0  0  0
  6  7  1  0  0  0  0
  7  8  2  0  0  0  0
  8 11  1  0  0  0  0
  9  8  1  0  0  0  0
 10  9  2  0  0  0  0
 12 11  1  0  0  0  0
 13  1  1  0  0  0  0
 14 15  1  6  0  0  0
 14 13  1  0  0  0  0
 14 17  1  0  0  0  0
 16 15  1  0  0  0  0
 18 17  1  0  0  0  0
 18 20  1  0  0  0  0
 20 19  1  0  0  0  0
M  END
>  <MODEL>
1

>  <REMARK>
 VINA RESULT:      -5.6      0.000      0.000
  Name = orig_f12_ligand
  12 active torsions:
  status: ('A' for Active; 'I' for Inactive)
    1  A    between atoms: C_1  and  C_2
    2  A    between atoms: C_2  and  C_3
    3  A    between atoms: C_3  and  C_4
    4  A    between atoms: C_4  and  C_5
    5  A    between atoms: C_5  and  C_6
    6  A    between atoms: C_5  and  O_8
    7  A    between atoms: C_6  and  C_7
    8  A    between atoms: O_8  and  C_9
    9  A    between atoms: C_9  and  C_11
   10  A    between atoms: C_12  and  C_13
   11  A    between atoms: C_16  and  O_17
   12  A    between atoms: O_17  and  C_18
                            x       y       z     vdW  Elec       q    Type
                         _______ _______ _______ _____ _____    ______ ____

>  <TORSDO>
F 9

$$$$
orig_f12_ligand
 OpenBabel10092621033D

 20 20  0  0  1  0  0  0  0  0999 V2000
    1.9520   -1.2110    3.6100 C   0  0  0  0  0  0  0  0  0  0  0  0
    1.8120   -1.0450    2.4180 O   0  0  0  0  0  0  0  0  0  0  0  0
    2.7780   -0.3610    4.4760 C   0  0  0  0  0  3  0  0  0  0  0  0
    3.5900   -0.9340    5.3730 C   0  0  0  0  0  3  0  0  0  0  0  0
    4.3600   -0.1510    6.3570 C   0  0  0  0  0  0  0  0  0  0  0  0
    5.1390   -0.7510    7.3210 C   0  0  0  0  0  3  0  0  0  0  0  0
    5.8780    0.0160    8.2060 C   0  0  0  0  0  3  0  0  0  0  0  0
    5.8300    1.3830    8.1320 C   0  0  0  0  0  0  0  0  0  0  0  0
    5.0530    1.9940    7.1650 C   0  0  0  0  0  3  0  0  0  0  0  0
    4.3060    1.2190    6.2860 C   0  0  0  0  0  3  0  0  0  0  0  0
    6.5500    2.1890    8.9670 O   0  0  0  0  0  0  0  0  0  0  0  0
    5.9910    3.4150    9.4220 C   0  0  0  0  0  1  0  0  0  0  0  0
    1.4060   -2.2250    4.2650 O   0  0  0  0  0  0  0  0  0  0  0  0
    0.1190   -2.0750    4.8140 C   0  0  1  0  0  3  0  0  0  0  0  0
   -0.7880   -3.1810    4.3000 C   0  0  0  0  0  2  0  0  0  0  0  0
   -0.2890   -3.9000    3.0600 C   0  0  0  0  0  1  0  0  0  0  0  0
    0.2300   -2.1200    6.3220 C   0  0  0  0  0  2  0  0  0  0  0  0
    0.1570   -0.7790    6.9770 C   0  0  0  0  0  2  0  0  0  0  0  0
    1.7450   -2.0040    8.4620 C   0  0  0  0  0  1  0  0  0  0  0  0
    1.0760   -0.6840    8.1610 C   0  0  0  0  0  2  0  0  0  0  0  0
  1 13  1  0  0  0  0
  1  3  1  0  0  0  0
  2  1  2  0  0  0  0
  3  4  2  0  0  0  0
  4  5  1  0  0  0  0
  5  6  1  0  0  0  0
  6  7  2  0  0  0  0
  8  7  1  0  0  0  0
  8 11  1  0  0  0  0
  9  8  2  0  0  0  0
 10  5  2  0  0  0  0
 10  9  1  0  0  0  0
 11 12  1  0  0  0  0
 13 14  1  0  0  0  0
 14 15  1  6  0  0  0
 14 17  1  0  0  0  0
 16 15  1  0  0  0  0
 17 18  1  0  0  0  0
 18 20  1  0  0  0  0
 20 19  1  0  0  0  0
M  END
>  <MODEL>
2

>  <REMARK>
 VINA RESULT:      -5.5      3.116      4.866
  Name = orig_f12_ligand
  12 active torsions:
  status: ('A' for Active; 'I' for Inactive)
    1  A    between atoms: C_1  and  C_2
    2  A    between atoms: C_2  and  C_3
    3  A    between atoms: C_3  and  C_4
    4  A    between atoms: C_4  and  C_5
    5  A    between atoms: C_5  and  C_6
    6  A    between atoms: C_5  and  O_8
    7  A    between atoms: C_6  and  C_7
    8  A    between atoms: O_8  and  C_9
    9  A    between atoms: C_9  and  C_11
   10  A    between atoms: C_12  and  C_13
   11  A    between atoms: C_16  and  O_17
   12  A    between atoms: O_17  and  C_18
                            x       y       z     vdW  Elec       q    Type
                         _______ _______ _______ _____ _____    ______ ____

>  <TORSDO>
F 9

$$$$
orig_f12_ligand
 OpenBabel10092621033D

 20 20  0  0  1  0  0  0  0  0999 V2000
    0.1710   -0.4170    7.0550 C   0  0  0  0  0  0  0  0  0  0  0  0
   -0.7710   -0.8960    7.6490 O   0  0  0  0  0  0  0  0  0  0  0  0
    1.3440    0.1840    7.7020 C   0  0  0  0  0  3  0  0  0  0  0  0
    1.7780    1.3810    7.2880 C   0  0  0  0  0  3  0  0  0  0  0  0
    3.0140    1.9960    7.8040 C   0  0  0  0  0  0  0  0  0  0  0  0
    3.1920    2.2700    9.1410 C   0  0  0  0  0  3  0  0  0  0  0  0
    4.3820    2.8140    9.5960 C   0  0  0  0  0  3  0  0  0  0  0  0
    5.3890    3.0930    8.7110 C   0  0  0  0  0  0  0  0  0  0  0  0
    5.2200    2.8180    7.3670 C   0  0  0  0  0  3  0  0  0  0  0  0
    4.0210    2.2810    6.9150 C   0  0  0  0  0  3  0  0  0  0  0  0
    6.5890    3.6140    9.1040 O   0  0  0  0  0  0  0  0  0  0  0  0
    6.8280    5.0110    8.9810 C   0  0  0  0  0  1  0  0  0  0  0  0
    0.2230   -0.3370    5.7330 O   0  0  0  0  0  0  0  0  0  0  0  0
    0.6380   -1.4600    4.9930 C   0  0  1  0  0  3  0  0  0  0  0  0
   -0.5510   -2.3700    4.7350 C   0  0  0  0  0  2  0  0  0  0  0  0
   -0.4000   -3.3070    3.5510 C   0  0  0  0  0  1  0  0  0  0  0  0
    1.2480   -0.9820    3.6930 C   0  0  0  0  0  2  0  0  0  0  0  0
    2.7120   -1.2540    3.5730 C   0  0  0  0  0  2  0  0  0  0  0  0
    4.1700   -0.9880    5.5810 C   0  0  0  0  0  1  0  0  0  0  0  0
    3.5280   -0.3010    4.3990 C   0  0  0  0  0  2  0  0  0  0  0  0
  1  2  2  0  0  0  0
  1  3  1  0  0  0  0
  4  3  2  0  0  0  0
  4  5  1  0  0  0  0
  5  6  1  0  0  0  0
  6  7  2  0  0  0  0
  8 11  1  0  0  0  0
  8  7  1  0  0  0  0
  9  8  2  0  0  0  0
 10  9  1  0  0  0  0
 10  5  2  0  0  0  0
 12 11  1  0  0  0  0
 13  1  1  0  0  0  0
 14 17  1  6  0  0  0
 14 13  1  0  0  0  0
 15 14  1  0  0  0  0
 16 15  1  0  0  0  0
 18 17  1  0  0  0  0
 18 20  1  0  0  0  0
 20 19  1  0  0  0  0
M  END
>  <MODEL>
3

>  <REMARK>
 VINA RESULT:      -5.5      2.767      4.165
  Name = orig_f12_ligand
  12 active torsions:
  status: ('A' for Active; 'I' for Inactive)
    1  A    between atoms: C_1  and  C_2
    2  A    between atoms: C_2  and  C_3
    3  A    between atoms: C_3  and  C_4
    4  A    between atoms: C_4  and  C_5
    5  A    between atoms: C_5  and  C_6
    6  A    between atoms: C_5  and  O_8
    7  A    between atoms: C_6  and  C_7
    8  A    between atoms: O_8  and  C_9
    9  A    between atoms: C_9  and  C_11
   10  A    between atoms: C_12  and  C_13
   11  A    between atoms: C_16  and  O_17
   12  A    between atoms: O_17  and  C_18
                            x       y       z     vdW  Elec       q    Type
                         _______ _______ _______ _____ _____    ______ ____

>  <TORSDO>
F 9

$$$$
orig_f12_ligand
 OpenBabel10092621033D

 20 20  0  0  1  0  0  0  0  0999 V2000
    5.8240    0.0170    8.0810 C   0  0  0  0  0  0  0  0  0  0  0  0
    6.5920   -0.5260    8.8450 O   0  0  0  0  0  0  0  0  0  0  0  0
    4.7380   -0.6670    7.3680 C   0  0  0  0  0  3  0  0  0  0  0  0
    4.3760   -0.2310    6.1540 C   0  0  0  0  0  3  0  0  0  0  0  0
    3.2220   -0.7870    5.4270 C   0  0  0  0  0  0  0  0  0  0  0  0
    2.0130   -1.0230    6.0420 C   0  0  0  0  0  3  0  0  0  0  0  0
    0.9380   -1.5110    5.3190 C   0  0  0  0  0  3  0  0  0  0  0  0
    1.0750   -1.7720    3.9810 C   0  0  0  0  0  0  0  0  0  0  0  0
    2.2840   -1.5360    3.3540 C   0  0  0  0  0  3  0  0  0  0  0  0
    3.3620   -1.0550    4.0870 C   0  0  0  0  0  3  0  0  0  0  0  0
    0.0450   -2.2380    3.2150 O   0  0  0  0  0  0  0  0  0  0  0  0
   -0.5530   -3.4920    3.5210 C   0  0  0  0  0  1  0  0  0  0  0  0
    5.9120    1.3010    7.7630 O   0  0  0  0  0  0  0  0  0  0  0  0
    5.3540    2.2620    8.6250 C   0  0  1  0  0  3  0  0  0  0  0  0
    6.4570    3.1460    9.1860 C   0  0  0  0  0  2  0  0  0  0  0  0
    6.6530    4.4660    8.4630 C   0  0  0  0  0  1  0  0  0  0  0  0
    4.3460    3.0790    7.8480 C   0  0  0  0  0  2  0  0  0  0  0  0
    2.9440    2.5720    7.9520 C   0  0  0  0  0  2  0  0  0  0  0  0
    1.8610    0.7720    9.2990 C   0  0  0  0  0  1  0  0  0  0  0  0
    2.6320    2.0700    9.3330 C   0  0  0  0  0  2  0  0  0  0  0  0
  1  2  2  0  0  0  0
  3  1  1  0  0  0  0
  4  3  2  0  0  0  0
  5  6  1  0  0  0  0
  5  4  1  0  0  0  0
  7  6  2  0  0  0  0
  8  7  1  0  0  0  0
  9  8  2  0  0  0  0
  9 10  1  0  0  0  0
 10  5  2  0  0  0  0
 11 12  1  0  0  0  0
 11  8  1  0  0  0  0
 13  1  1  0  0  0  0
 13 14  1  0  0  0  0
 14 17  1  6  0  0  0
 14 15  1  0  0  0  0
 16 15  1  0  0  0  0
 17 18  1  0  0  0  0
 18 20  1  0  0  0  0
 19 20  1  0  0  0  0
M  END
>  <MODEL>
4

>  <REMARK>
 VINA RESULT:      -5.4      2.786      7.016
  Name = orig_f12_ligand
  12 active torsions:
  status: ('A' for Active; 'I' for Inactive)
    1  A    between atoms: C_1  and  C_2
    2  A    between atoms: C_2  and  C_3
    3  A    between atoms: C_3  and  C_4
    4  A    between atoms: C_4  and  C_5
    5  A    between atoms: C_5  and  C_6
    6  A    between atoms: C_5  and  O_8
    7  A    between atoms: C_6  and  C_7
    8  A    between atoms: O_8  and  C_9
    9  A    between atoms: C_9  and  C_11
   10  A    between atoms: C_12  and  C_13
   11  A    between atoms: C_16  and  O_17
   12  A    between atoms: O_17  and  C_18
                            x       y       z     vdW  Elec       q    Type
                         _______ _______ _______ _____ _____    ______ ____

>  <TORSDO>
F 9

$$$$
orig_f12_ligand
 OpenBabel10092621033D

 20 20  0  0  1  0  0  0  0  0999 V2000
    0.2060   -2.1770    5.6290 C   0  0  0  0  0  0  0  0  0  0  0  0
   -0.5230   -2.9410    5.0330 O   0  0  0  0  0  0  0  0  0  0  0  0
    0.4090   -2.1860    7.0830 C   0  0  0  0  0  3  0  0  0  0  0  0
   -0.4900   -1.5850    7.8720 C   0  0  0  0  0  3  0  0  0  0  0  0
   -0.2980   -1.4470    9.3270 C   0  0  0  0  0  0  0  0  0  0  0  0
    0.8040   -1.9630    9.9720 C   0  0  0  0  0  3  0  0  0  0  0  0
    0.9710   -1.7830   11.3350 C   0  0  0  0  0  3  0  0  0  0  0  0
    0.0300   -1.0940   12.0540 C   0  0  0  0  0  0  0  0  0  0  0  0
   -1.0780   -0.5700   11.4140 C   0  0  0  0  0  3  0  0  0  0  0  0
   -1.2440   -0.7620   10.0480 C   0  0  0  0  0  3  0  0  0  0  0  0
    0.1500   -0.8720   13.3960 O   0  0  0  0  0  0  0  0  0  0  0  0
   -0.4820   -1.7510   14.3180 C   0  0  0  0  0  1  0  0  0  0  0  0
    0.8720   -1.2020    5.0280 O   0  0  0  0  0  0  0  0  0  0  0  0
    2.2650   -1.3200    4.8660 C   0  0  1  0  0  3  0  0  0  0  0  0
    2.5890   -1.5960    3.4060 C   0  0  0  0  0  2  0  0  0  0  0  0
    1.4220   -1.4440    2.4490 C   0  0  0  0  0  1  0  0  0  0  0  0
    2.9150   -0.0360    5.3330 C   0  0  0  0  0  2  0  0  0  0  0  0
    3.8230   -0.2080    6.5070 C   0  0  0  0  0  2  0  0  0  0  0  0
    2.0670    1.1580    7.6370 C   0  0  0  0  0  1  0  0  0  0  0  0
    3.1260    0.0940    7.8030 C   0  0  0  0  0  2  0  0  0  0  0  0
  1  3  1  0  0  0  0
  2  1  2  0  0  0  0
  3  4  2  0  0  0  0
  4  5  1  0  0  0  0
  5  6  2  0  0  0  0
  5 10  1  0  0  0  0
  6  7  1  0  0  0  0
  7  8  2  0  0  0  0
  8 11  1  0  0  0  0
  9  8  1  0  0  0  0
 10  9  2  0  0  0  0
 11 12  1  0  0  0  0
 13  1  1  0  0  0  0
 14 15  1  6  0  0  0
 14 13  1  0  0  0  0
 14 17  1  0  0  0  0
 16 15  1  0  0  0  0
 17 18  1  0  0  0  0
 18 20  1  0  0  0  0
 19 20  1  0  0  0  0
M  END
>  <MODEL>
5

>  <REMARK>
 VINA RESULT:      -5.2      2.098      2.392
  Name = orig_f12_ligand
  12 active torsions:
  status: ('A' for Active; 'I' for Inactive)
    1  A    between atoms: C_1  and  C_2
    2  A    between atoms: C_2  and  C_3
    3  A    between atoms: C_3  and  C_4
    4  A    between atoms: C_4  and  C_5
    5  A    between atoms: C_5  and  C_6
    6  A    between atoms: C_5  and  O_8
    7  A    between atoms: C_6  and  C_7
    8  A    between atoms: O_8  and  C_9
    9  A    between atoms: C_9  and  C_11
   10  A    between atoms: C_12  and  C_13
   11  A    between atoms: C_16  and  O_17
   12  A    between atoms: O_17  and  C_18
                            x       y       z     vdW  Elec       q    Type
                         _______ _______ _______ _____ _____    ______ ____

>  <TORSDO>
F 9

$$$$
orig_f12_ligand
 OpenBabel10092621033D

 20 20  0  0  1  0  0  0  0  0999 V2000
    2.5780    2.0190    8.9150 C   0  0  0  0  0  0  0  0  0  0  0  0
    1.8550    2.2470    9.8600 O   0  0  0  0  0  0  0  0  0  0  0  0
    2.1350    1.4010    7.6590 C   0  0  0  0  0  3  0  0  0  0  0  0
    1.3700    0.3030    7.7040 C   0  0  0  0  0  3  0  0  0  0  0  0
    0.9840   -0.4420    6.4930 C   0  0  0  0  0  0  0  0  0  0  0  0
    1.8610   -0.6540    5.4530 C   0  0  0  0  0  3  0  0  0  0  0  0
    1.4760   -1.3910    4.3460 C   0  0  0  0  0  3  0  0  0  0  0  0
    0.2100   -1.9080    4.2750 C   0  0  0  0  0  0  0  0  0  0  0  0
   -0.6770   -1.7030    5.3150 C   0  0  0  0  0  3  0  0  0  0  0  0
   -0.2880   -0.9550    6.4200 C   0  0  0  0  0  3  0  0  0  0  0  0
   -0.2200   -2.6560    3.2160 O   0  0  0  0  0  0  0  0  0  0  0  0
   -0.6360   -4.0000    3.4220 C   0  0  0  0  0  1  0  0  0  0  0  0
    3.8810    2.2620    8.9300 O   0  0  0  0  0  0  0  0  0  0  0  0
    4.6570    1.9190    7.8080 C   0  0  1  0  0  3  0  0  0  0  0  0
    5.5680    3.0800    7.4420 C   0  0  0  0  0  2  0  0  0  0  0  0
    6.1640    3.8270    8.6210 C   0  0  0  0  0  1  0  0  0  0  0  0
    5.4620    0.6810    8.1380 C   0  0  0  0  0  2  0  0  0  0  0  0
    5.1560   -0.4930    7.2660 C   0  0  0  0  0  2  0  0  0  0  0  0
    4.2860   -1.2760    9.4690 C   0  0  0  0  0  1  0  0  0  0  0  0
    4.6660   -1.6690    8.0610 C   0  0  0  0  0  2  0  0  0  0  0  0
  1 13  1  0  0  0  0
  1  2  2  0  0  0  0
  3  4  2  0  0  0  0
  3  1  1  0  0  0  0
  5  4  1  0  0  0  0
  6  5  2  0  0  0  0
  7  6  1  0  0  0  0
  8  7  2  0  0  0  0
  8  9  1  0  0  0  0
  9 10  2  0  0  0  0
 10  5  1  0  0  0  0
 11 12  1  0  0  0  0
 11  8  1  0  0  0  0
 14 15  1  1  0  0  0
 14 17  1  0  0  0  0
 14 13  1  0  0  0  0
 15 16  1  0  0  0  0
 18 20  1  0  0  0  0
 18 17  1  0  0  0  0
 20 19  1  0  0  0  0
M  END
>  <MODEL>
6

>  <REMARK>
 VINA RESULT:      -5.1      2.647      6.356
  Name = orig_f12_ligand
  12 active torsions:
  status: ('A' for Active; 'I' for Inactive)
    1  A    between atoms: C_1  and  C_2
    2  A    between atoms: C_2  and  C_3
    3  A    between atoms: C_3  and  C_4
    4  A    between atoms: C_4  and  C_5
    5  A    between atoms: C_5  and  C_6
    6  A    between atoms: C_5  and  O_8
    7  A    between atoms: C_6  and  C_7
    8  A    between atoms: O_8  and  C_9
    9  A    between atoms: C_9  and  C_11
   10  A    between atoms: C_12  and  C_13
   11  A    between atoms: C_16  and  O_17
   12  A    between atoms: O_17  and  C_18
                            x       y       z     vdW  Elec       q    Type
                         _______ _______ _______ _____ _____    ______ ____

>  <TORSDO>
F 9

$$$$
orig_f12_ligand
 OpenBabel10092621033D

 20 20  0  0  1  0  0  0  0  0999 V2000
    0.6110   -1.6790    7.0720 C   0  0  0  0  0  0  0  0  0  0  0  0
    0.0490   -2.7520    7.0430 O   0  0  0  0  0  0  0  0  0  0  0  0
    1.0540   -1.0050    8.2990 C   0  0  0  0  0  3  0  0  0  0  0  0
    1.3610    0.2980    8.2550 C   0  0  0  0  0  3  0  0  0  0  0  0
    1.9240    1.0170    9.4120 C   0  0  0  0  0  0  0  0  0  0  0  0
    1.5140    0.7630   10.7010 C   0  0  0  0  0  3  0  0  0  0  0  0
    2.0910    1.4320   11.7680 C   0  0  0  0  0  3  0  0  0  0  0  0
    3.0730    2.3610   11.5440 C   0  0  0  0  0  0  0  0  0  0  0  0
    3.4930    2.6200   10.2520 C   0  0  0  0  0  3  0  0  0  0  0  0
    2.9030    1.9530    9.1850 C   0  0  0  0  0  3  0  0  0  0  0  0
    3.6890    3.0380   12.5570 O   0  0  0  0  0  0  0  0  0  0  0  0
    5.1090    3.0830   12.6160 C   0  0  0  0  0  1  0  0  0  0  0  0
    0.8490   -0.9610    5.9830 O   0  0  0  0  0  0  0  0  0  0  0  0
    1.5570   -1.5450    4.9170 C   0  0  1  0  0  3  0  0  0  0  0  0
    0.6370   -1.6990    3.7160 C   0  0  0  0  0  2  0  0  0  0  0  0
    1.3380   -1.7630    2.3720 C   0  0  0  0  0  1  0  0  0  0  0  0
    2.7410   -0.6640    4.5840 C   0  0  0  0  0  2  0  0  0  0  0  0
    3.9790   -0.9940    5.3530 C   0  0  0  0  0  2  0  0  0  0  0  0
    5.1310   -0.3920    7.4830 C   0  0  0  0  0  1  0  0  0  0  0  0
    4.3760    0.1190    6.2790 C   0  0  0  0  0  2  0  0  0  0  0  0
  1  3  1  0  0  0  0
  2  1  2  0  0  0  0
  4  3  2  0  0  0  0
  4  5  1  0  0  0  0
  5  6  1  0  0  0  0
  6  7  2  0  0  0  0
  8  7  1  0  0  0  0
  8 11  1  0  0  0  0
  9  8  2  0  0  0  0
 10  5  2  0  0  0  0
 10  9  1  0  0  0  0
 11 12  1  0  0  0  0
 13  1  1  0  0  0  0
 14 15  1  6  0  0  0
 14 13  1  0  0  0  0
 16 15  1  0  0  0  0
 17 14  1  0  0  0  0
 17 18  1  0  0  0  0
 18 20  1  0  0  0  0
 20 19  1  0  0  0  0
M  END
>  <MODEL>
7

>  <REMARK>
 VINA RESULT:      -5.1      1.591      2.234
  Name = orig_f12_ligand
  12 active torsions:
  status: ('A' for Active; 'I' for Inactive)
    1  A    between atoms: C_1  and  C_2
    2  A    between atoms: C_2  and  C_3
    3  A    between atoms: C_3  and  C_4
    4  A    between atoms: C_4  and  C_5
    5  A    between atoms: C_5  and  C_6
    6  A    between atoms: C_5  and  O_8
    7  A    between atoms: C_6  and  C_7
    8  A    between atoms: O_8  and  C_9
    9  A    between atoms: C_9  and  C_11
   10  A    between atoms: C_12  and  C_13
   11  A    between atoms: C_16  and  O_17
   12  A    between atoms: O_17  and  C_18
                            x       y       z     vdW  Elec       q    Type
                         _______ _______ _______ _____ _____    ______ ____

>  <TORSDO>
F 9

$$$$
orig_f12_ligand
 OpenBabel10092621033D

 20 20  0  0  1  0  0  0  0  0999 V2000
    3.0710   -0.7610    4.0580 C   0  0  0  0  0  0  0  0  0  0  0  0
    3.5300   -1.8630    3.8520 O   0  0  0  0  0  0  0  0  0  0  0  0
    3.7030    0.2590    4.9030 C   0  0  0  0  0  3  0  0  0  0  0  0
    4.2730   -0.1080    6.0570 C   0  0  0  0  0  3  0  0  0  0  0  0
    4.8220    0.8680    7.0140 C   0  0  0  0  0  0  0  0  0  0  0  0
    5.6200    0.4890    8.0710 C   0  0  0  0  0  3  0  0  0  0  0  0
    6.1490    1.4370    8.9300 C   0  0  0  0  0  3  0  0  0  0  0  0
    5.8730    2.7650    8.7370 C   0  0  0  0  0  0  0  0  0  0  0  0
    5.0750    3.1550    7.6780 C   0  0  0  0  0  3  0  0  0  0  0  0
    4.5390    2.1980    6.8250 C   0  0  0  0  0  3  0  0  0  0  0  0
    6.3800    3.7450    9.5420 O   0  0  0  0  0  0  0  0  0  0  0  0
    6.5240    3.5100   10.9370 C   0  0  0  0  0  1  0  0  0  0  0  0
    1.9010   -0.3670    3.5740 O   0  0  0  0  0  0  0  0  0  0  0  0
    0.7230   -0.9710    4.0490 C   0  0  1  0  0  3  0  0  0  0  0  0
    0.4300   -2.2250    3.2420 C   0  0  0  0  0  2  0  0  0  0  0  0
   -0.5210   -3.2080    3.9010 C   0  0  0  0  0  1  0  0  0  0  0  0
    0.9070   -1.2990    5.5150 C   0  0  0  0  0  2  0  0  0  0  0  0
    0.4010   -0.2410    6.4420 C   0  0  0  0  0  2  0  0  0  0  0  0
    1.5910   -1.7850    7.9990 C   0  0  0  0  0  1  0  0  0  0  0  0
    0.8310   -0.4870    7.8590 C   0  0  0  0  0  2  0  0  0  0  0  0
  1  3  1  0  0  0  0
  2  1  2  0  0  0  0
  3  4  2  0  0  0  0
  4  5  1  0  0  0  0
  5  6  1  0  0  0  0
  6  7  2  0  0  0  0
  8  7  1  0  0  0  0
  8 11  1  0  0  0  0
  9  8  2  0  0  0  0
 10  5  2  0  0  0  0
 10  9  1  0  0  0  0
 11 12  1  0  0  0  0
 13 14  1  0  0  0  0
 13  1  1  0  0  0  0
 14 15  1  6  0  0  0
 14 17  1  0  0  0  0
 15 16  1  0  0  0  0
 17 18  1  0  0  0  0
 18 20  1  0  0  0  0
 20 19  1  0  0  0  0
M  END
>  <MODEL>
8

>  <REMARK>
 VINA RESULT:      -5.0      3.215      4.676
  Name = orig_f12_ligand
  12 active torsions:
  status: ('A' for Active; 'I' for Inactive)
    1  A    between atoms: C_1  and  C_2
    2  A    between atoms: C_2  and  C_3
    3  A    between atoms: C_3  and  C_4
    4  A    between atoms: C_4  and  C_5
    5  A    between atoms: C_5  and  C_6
    6  A    between atoms: C_5  and  O_8
    7  A    between atoms: C_6  and  C_7
    8  A    between atoms: O_8  and  C_9
    9  A    between atoms: C_9  and  C_11
   10  A    between atoms: C_12  and  C_13
   11  A    between atoms: C_16  and  O_17
   12  A    between atoms: O_17  and  C_18
                            x       y       z     vdW  Elec       q    Type
                         _______ _______ _______ _____ _____    ______ ____

>  <TORSDO>
F 9

$$$$
orig_f12_ligand
 OpenBabel10092621033D

 20 20  0  0  1  0  0  0  0  0999 V2000
    3.9430   -1.7920    6.7100 C   0  0  0  0  0  0  0  0  0  0  0  0
    3.8930   -2.4150    7.7490 O   0  0  0  0  0  0  0  0  0  0  0  0
    4.6590   -0.5230    6.5350 C   0  0  0  0  0  3  0  0  0  0  0  0
    4.5700    0.4160    7.4850 C   0  0  0  0  0  3  0  0  0  0  0  0
    5.1600    1.7570    7.3310 C   0  0  0  0  0  0  0  0  0  0  0  0
    4.6650    2.6750    6.4320 C   0  0  0  0  0  3  0  0  0  0  0  0
    5.2220    3.9400    6.3390 C   0  0  0  0  0  3  0  0  0  0  0  0
    6.2790    4.2830    7.1390 C   0  0  0  0  0  0  0  0  0  0  0  0
    6.7810    3.3690    8.0460 C   0  0  0  0  0  3  0  0  0  0  0  0
    6.2250    2.0980    8.1290 C   0  0  0  0  0  3  0  0  0  0  0  0
    6.8560    5.5200    7.1020 O   0  0  0  0  0  0  0  0  0  0  0  0
    6.3660    6.5030    6.1990 C   0  0  0  0  0  1  0  0  0  0  0  0
    3.3040   -2.1720    5.6130 O   0  0  0  0  0  0  0  0  0  0  0  0
    2.4310   -1.2680    4.9800 C   0  0  1  0  0  3  0  0  0  0  0  0
    2.6430   -1.3220    3.4750 C   0  0  0  0  0  2  0  0  0  0  0  0
    1.4100   -1.6740    2.6630 C   0  0  0  0  0  1  0  0  0  0  0  0
    1.0090   -1.6390    5.3410 C   0  0  0  0  0  2  0  0  0  0  0  0
    0.2180   -0.5140    5.9250 C   0  0  0  0  0  2  0  0  0  0  0  0
    1.0560   -0.0720    8.2330 C   0  0  0  0  0  1  0  0  0  0  0  0
    1.0640    0.3740    6.7900 C   0  0  0  0  0  2  0  0  0  0  0  0
  1  2  2  0  0  0  0
  3  1  1  0  0  0  0
  3  4  2  0  0  0  0
  5  4  1  0  0  0  0
  5 10  1  0  0  0  0
  6  5  2  0  0  0  0
  7  6  1  0  0  0  0
  7  8  2  0  0  0  0
  8  9  1  0  0  0  0
  9 10  2  0  0  0  0
 11  8  1  0  0  0  0
 12 11  1  0  0  0  0
 13  1  1  0  0  0  0
 14 15  1  6  0  0  0
 14 17  1  0  0  0  0
 14 13  1  0  0  0  0
 16 15  1  0  0  0  0
 17 18  1  0  0  0  0
 18 20  1  0  0  0  0
 20 19  1  0  0  0  0
M  END
>  <MODEL>
9

>  <REMARK>
 VINA RESULT:      -5.0      3.094      5.334
  Name = orig_f12_ligand
  12 active torsions:
  status: ('A' for Active; 'I' for Inactive)
    1  A    between atoms: C_1  and  C_2
    2  A    between atoms: C_2  and  C_3
    3  A    between atoms: C_3  and  C_4
    4  A    between atoms: C_4  and  C_5
    5  A    between atoms: C_5  and  C_6
    6  A    between atoms: C_5  and  O_8
    7  A    between atoms: C_6  and  C_7
    8  A    between atoms: O_8  and  C_9
    9  A    between atoms: C_9  and  C_11
   10  A    between atoms: C_12  and  C_13
   11  A    between atoms: C_16  and  O_17
   12  A    between atoms: O_17  and  C_18
                            x       y       z     vdW  Elec       q    Type
                         _______ _______ _______ _____ _____    ______ ____

>  <TORSDO>
F 9

$$$$
