s3_orig_f12_dockpose9
     RDKit          3D

 20 20  0  0  0  0  0  0  0  0999 V2000
   -9.2750    2.2190   -1.2920 C   0  0  0  0  0  0  0  0  0  0  0  0
   -9.4650    1.7660    0.1390 C   0  0  0  0  0  0  0  0  0  0  0  0
   -8.9540    0.3640    0.3510 C   0  0  0  0  0  0  0  0  0  0  0  0
   -7.7160    0.0760   -0.4330 C   0  0  0  0  0  0  0  0  0  0  0  0
   -7.5800   -1.3610   -0.9110 C   0  0  2  0  0  0  0  0  0  0  0  0
   -8.7870   -1.7470   -1.7450 C   0  0  0  0  0  0  0  0  0  0  0  0
   -9.2080   -3.2040   -1.5900 C   0  0  0  0  0  0  0  0  0  0  0  0
   -7.4350   -2.1990    0.0970 O   0  0  0  0  0  0  0  0  0  0  0  0
   -6.9960   -2.8300    1.0680 C   0  0  0  0  0  0  0  0  0  0  0  0
   -7.7810   -3.2460    1.8810 O   0  0  0  0  0  0  0  0  0  0  0  0
   -5.5270   -2.9890    1.1720 C   0  0  0  0  0  0  0  0  0  0  0  0
   -4.8700   -2.7440    2.3030 C   0  0  0  0  0  0  0  0  0  0  0  0
   -3.3920   -2.7900    2.4400 C   0  0  0  0  0  0  0  0  0  0  0  0
   -2.8020   -2.2850    3.5860 C   0  0  0  0  0  0  0  0  0  0  0  0
   -1.4170   -2.2400    3.7070 C   0  0  0  0  0  0  0  0  0  0  0  0
   -0.6060   -2.7540    2.7170 C   0  0  0  0  0  0  0  0  0  0  0  0
    0.7710   -2.7470    2.8020 O   0  0  0  0  0  0  0  0  0  0  0  0
    1.3500   -2.5730    4.0810 C   0  0  0  0  0  0  0  0  0  0  0  0
   -1.1960   -3.3020    1.6080 C   0  0  0  0  0  0  0  0  0  0  0  0
   -2.5830   -3.3190    1.4680 C   0  0  0  0  0  0  0  0  0  0  0  0
  2  1  1  0
  3  2  1  0
  4  3  1  0
  5  4  1  1
  6  5  1  0
  7  6  1  0
  8  5  1  0
  9  8  1  0
 10  9  2  0
 11  9  1  0
 12 11  2  3
 13 12  1  0
 14 13  1  0
 15 14  2  0
 16 15  1  0
 17 16  1  0
 18 17  1  0
 19 16  2  0
 20 19  1  0
 20 13  2  0
M  END
