bg33_3_ligand
 OpenBabel10092621153D

 20 20  0  0  1  0  0  0  0  0999 V2000
    6.1080    6.2280    3.5220 C   0  0  0  0  0  0  0  0  0  0  0  0
    6.8880    5.3110    3.6290 O   0  0  0  0  0  0  0  0  0  0  0  0
    4.6250    6.1100    4.0090 C   0  0  0  0  0  3  0  0  0  0  0  0
    3.8250    5.1810    3.4380 C   0  0  0  0  0  3  0  0  0  0  0  0
    2.4250    5.0750    3.7610 C   0  0  0  0  0  0  0  0  0  0  0  0
    1.8850    3.8940    4.2200 C   0  0  0  0  0  3  0  0  0  0  0  0
    0.5900    3.7840    4.5770 C   0  0  0  0  0  3  0  0  0  0  0  0
   -0.2120    4.8970    4.4710 C   0  0  0  0  0  0  0  0  0  0  0  0
    0.2780    6.0700    3.9890 C   0  0  0  0  0  3  0  0  0  0  0  0
    1.6090    6.1600    3.6390 C   0  0  0  0  0  3  0  0  0  0  0  0
   -1.5280    4.8600    4.7720 O   0  0  0  0  0  0  0  0  0  0  0  0
   -1.8680    5.2340    6.0950 C   0  0  0  0  0  1  0  0  0  0  0  0
    6.5290    7.2870    2.9730 O   0  0  0  0  0  0  0  0  0  0  0  0
    6.3040    7.4350    1.5350 C   0  0  2  0  0  3  0  0  0  0  0  0
    7.5980    7.5250    0.8710 C   0  0  0  0  0  2  0  0  0  0  0  0
    7.4950    7.6870   -0.6160 C   0  0  0  0  0  1  0  0  0  0  0  0
    5.4790    8.6760    1.2430 C   0  0  0  0  0  2  0  0  0  0  0  0
    4.0030    8.2370    1.1240 C   0  0  0  0  0  2  0  0  0  0  0  0
    3.4170    7.3850   -1.1170 C   0  0  0  0  0  1  0  0  0  0  0  0
    3.8290    6.9890    0.3170 C   0  0  0  0  0  2  0  0  0  0  0  0
  1  2  2  0  0  0  0
  1  3  1  0  0  0  0
  4  5  1  0  0  0  0
  4  3  2  0  0  0  0
  5  6  1  0  0  0  0
  6  7  2  0  0  0  0
  8  7  1  0  0  0  0
  8 11  1  0  0  0  0
  9  8  2  0  0  0  0
 10  5  2  0  0  0  0
 10  9  1  0  0  0  0
 11 12  1  0  0  0  0
 13  1  1  0  0  0  0
 14 15  1  6  0  0  0
 14 13  1  0  0  0  0
 16 15  1  0  0  0  0
 17 14  1  0  0  0  0
 18 17  1  0  0  0  0
 19 20  1  0  0  0  0
 20 18  1  0  0  0  0
M  END
>  <MODEL>
1

>  <REMARK>
 VINA RESULT:      -4.2      0.000      0.000
  Name = bg33_3_ligand
  12 active torsions:
  status: ('A' for Active; 'I' for Inactive)
    1  A    between atoms: C_1  and  C_2
    2  A    between atoms: C_2  and  C_3
    3  A    between atoms: C_3  and  C_4
    4  A    between atoms: C_4  and  C_5
    5  A    between atoms: C_5  and  C_6
    6  A    between atoms: C_5  and  O_8
    7  A    between atoms: C_6  and  C_7
    8  A    between atoms: O_8  and  C_9
    9  A    between atoms: C_9  and  C_11
   10  A    between atoms: C_12  and  C_13
   11  A    between atoms: C_16  and  O_17
   12  A    between atoms: O_17  and  C_18
                            x       y       z     vdW  Elec       q    Type
                         _______ _______ _______ _____ _____    ______ ____

>  <TORSDO>
F 9

$$$$
bg33_3_ligand
 OpenBabel10092621153D

 20 20  0  0  1  0  0  0  0  0999 V2000
    5.6760    7.3960    1.9160 C   0  0  0  0  0  0  0  0  0  0  0  0
    6.6810    6.9090    2.3790 O   0  0  0  0  0  0  0  0  0  0  0  0
    4.2690    7.1430    2.5540 C   0  0  0  0  0  3  0  0  0  0  0  0
    3.9550    5.8930    2.9630 C   0  0  0  0  0  3  0  0  0  0  0  0
    2.6480    5.5590    3.4690 C   0  0  0  0  0  0  0  0  0  0  0  0
    1.6330    6.4890    3.4930 C   0  0  0  0  0  3  0  0  0  0  0  0
    0.3880    6.1870    3.9150 C   0  0  0  0  0  3  0  0  0  0  0  0
    0.1370    4.9010    4.3360 C   0  0  0  0  0  0  0  0  0  0  0  0
    1.1240    3.9670    4.3590 C   0  0  0  0  0  3  0  0  0  0  0  0
    2.3870    4.2980    3.9150 C   0  0  0  0  0  3  0  0  0  0  0  0
   -1.0710    4.5280    4.8090 O   0  0  0  0  0  0  0  0  0  0  0  0
   -1.5490    5.2580    5.9250 C   0  0  0  0  0  1  0  0  0  0  0  0
    5.8000    8.1020    0.8740 O   0  0  0  0  0  0  0  0  0  0  0  0
    5.7690    7.4100   -0.4140 C   0  0  2  0  0  3  0  0  0  0  0  0
    6.9670    7.7700   -1.1620 C   0  0  0  0  0  2  0  0  0  0  0  0
    7.4570    6.6780   -2.0650 C   0  0  0  0  0  1  0  0  0  0  0  0
    4.5280    7.7910   -1.2010 C   0  0  0  0  0  2  0  0  0  0  0  0
    3.8090    6.4830   -1.5990 C   0  0  0  0  0  2  0  0  0  0  0  0
    4.2460    7.5800   -3.7670 C   0  0  0  0  0  1  0  0  0  0  0  0
    3.6620    6.3260   -3.0790 C   0  0  0  0  0  2  0  0  0  0  0  0
  1  2  2  0  0  0  0
  1  3  1  0  0  0  0
  3  4  2  0  0  0  0
  4  5  1  0  0  0  0
  5  6  2  0  0  0  0
  5 10  1  0  0  0  0
  6  7  1  0  0  0  0
  7  8  2  0  0  0  0
  8  9  1  0  0  0  0
  8 11  1  0  0  0  0
 10  9  2  0  0  0  0
 11 12  1  0  0  0  0
 13  1  1  0  0  0  0
 14 17  1  6  0  0  0
 14 13  1  0  0  0  0
 15 14  1  0  0  0  0
 16 15  1  0  0  0  0
 18 17  1  0  0  0  0
 19 20  1  0  0  0  0
 20 18  1  0  0  0  0
M  END
>  <MODEL>
2

>  <REMARK>
 VINA RESULT:      -4.0      1.321      2.141
  Name = bg33_3_ligand
  12 active torsions:
  status: ('A' for Active; 'I' for Inactive)
    1  A    between atoms: C_1  and  C_2
    2  A    between atoms: C_2  and  C_3
    3  A    between atoms: C_3  and  C_4
    4  A    between atoms: C_4  and  C_5
    5  A    between atoms: C_5  and  C_6
    6  A    between atoms: C_5  and  O_8
    7  A    between atoms: C_6  and  C_7
    8  A    between atoms: O_8  and  C_9
    9  A    between atoms: C_9  and  C_11
   10  A    between atoms: C_12  and  C_13
   11  A    between atoms: C_16  and  O_17
   12  A    between atoms: O_17  and  C_18
                            x       y       z     vdW  Elec       q    Type
                         _______ _______ _______ _____ _____    ______ ____

>  <TORSDO>
F 9

$$$$
bg33_3_ligand
 OpenBabel10092621153D

 20 20  0  0  1  0  0  0  0  0999 V2000
    4.9230    7.5070    0.8420 C   0  0  0  0  0  0  0  0  0  0  0  0
    6.0240    7.4840    1.3420 O   0  0  0  0  0  0  0  0  0  0  0  0
    3.6400    7.1380    1.6600 C   0  0  0  0  0  3  0  0  0  0  0  0
    3.7170    6.1490    2.5790 C   0  0  0  0  0  3  0  0  0  0  0  0
    2.5600    5.6840    3.3000 C   0  0  0  0  0  0  0  0  0  0  0  0
    2.4990    4.4050    3.8070 C   0  0  0  0  0  3  0  0  0  0  0  0
    1.4490    3.9630    4.5280 C   0  0  0  0  0  3  0  0  0  0  0  0
    0.4060    4.8310    4.7570 C   0  0  0  0  0  0  0  0  0  0  0  0
    0.4150    6.0890    4.2430 C   0  0  0  0  0  3  0  0  0  0  0  0
    1.5050    6.5200    3.5160 C   0  0  0  0  0  3  0  0  0  0  0  0
   -0.6990    4.4550    5.4370 O   0  0  0  0  0  0  0  0  0  0  0  0
   -1.0540    5.2750    6.5360 C   0  0  0  0  0  1  0  0  0  0  0  0
    4.8480    7.8180   -0.3810 O   0  0  0  0  0  0  0  0  0  0  0  0
    4.9470    6.7340   -1.3580 C   0  0  2  0  0  3  0  0  0  0  0  0
    5.4210    7.2890   -2.6190 C   0  0  0  0  0  2  0  0  0  0  0  0
    6.9070    7.4830   -2.6650 C   0  0  0  0  0  1  0  0  0  0  0  0
    3.6000    6.0620   -1.5560 C   0  0  0  0  0  2  0  0  0  0  0  0
    2.8560    6.8300   -2.6700 C   0  0  0  0  0  2  0  0  0  0  0  0
    1.3550    8.0360   -1.1260 C   0  0  0  0  0  1  0  0  0  0  0  0
    1.4190    7.0860   -2.3410 C   0  0  0  0  0  2  0  0  0  0  0  0
  1  2  2  0  0  0  0
  1  3  1  0  0  0  0
  3  4  2  0  0  0  0
  4  5  1  0  0  0  0
  5 10  2  0  0  0  0
  5  6  1  0  0  0  0
  6  7  2  0  0  0  0
  7  8  1  0  0  0  0
  8 11  1  0  0  0  0
  9  8  2  0  0  0  0
 10  9  1  0  0  0  0
 11 12  1  0  0  0  0
 13  1  1  0  0  0  0
 14 15  1  6  0  0  0
 14 13  1  0  0  0  0
 16 15  1  0  0  0  0
 17 14  1  0  0  0  0
 18 20  1  0  0  0  0
 18 17  1  0  0  0  0
 20 19  1  0  0  0  0
M  END
>  <MODEL>
3

>  <REMARK>
 VINA RESULT:      -3.9      1.662      2.601
  Name = bg33_3_ligand
  12 active torsions:
  status: ('A' for Active; 'I' for Inactive)
    1  A    between atoms: C_1  and  C_2
    2  A    between atoms: C_2  and  C_3
    3  A    between atoms: C_3  and  C_4
    4  A    between atoms: C_4  and  C_5
    5  A    between atoms: C_5  and  C_6
    6  A    between atoms: C_5  and  O_8
    7  A    between atoms: C_6  and  C_7
    8  A    between atoms: O_8  and  C_9
    9  A    between atoms: C_9  and  C_11
   10  A    between atoms: C_12  and  C_13
   11  A    between atoms: C_16  and  O_17
   12  A    between atoms: O_17  and  C_18
                            x       y       z     vdW  Elec       q    Type
                         _______ _______ _______ _____ _____    ______ ____

>  <TORSDO>
F 9

$$$$
bg33_3_ligand
 OpenBabel10092621153D

 20 20  0  0  1  0  0  0  0  0999 V2000
    3.8980    7.2700    0.3740 C   0  0  0  0  0  0  0  0  0  0  0  0
    4.6080    8.2160    0.1210 O   0  0  0  0  0  0  0  0  0  0  0  0
    3.3200    7.0350    1.8100 C   0  0  0  0  0  3  0  0  0  0  0  0
    3.4970    5.8280    2.3930 C   0  0  0  0  0  3  0  0  0  0  0  0
    2.9130    5.5020    3.6690 C   0  0  0  0  0  0  0  0  0  0  0  0
    2.9030    6.4110    4.7030 C   0  0  0  0  0  3  0  0  0  0  0  0
    2.3180    6.1480    5.8890 C   0  0  0  0  0  3  0  0  0  0  0  0
    1.7150    4.9230    6.0610 C   0  0  0  0  0  0  0  0  0  0  0  0
    1.7370    3.9880    5.0740 C   0  0  0  0  0  3  0  0  0  0  0  0
    2.3340    4.2850    3.8670 C   0  0  0  0  0  3  0  0  0  0  0  0
    1.1410    4.5670    7.2300 O   0  0  0  0  0  0  0  0  0  0  0  0
    0.2270    5.5010    7.7770 C   0  0  0  0  0  1  0  0  0  0  0  0
    3.6590    6.4560   -0.5640 O   0  0  0  0  0  0  0  0  0  0  0  0
    3.3230    7.0180   -1.8720 C   0  0  2  0  0  3  0  0  0  0  0  0
    1.9700    6.6020   -2.2210 C   0  0  0  0  0  2  0  0  0  0  0  0
    0.9310    7.6420   -1.9230 C   0  0  0  0  0  1  0  0  0  0  0  0
    4.3030    6.5440   -2.9300 C   0  0  0  0  0  2  0  0  0  0  0  0
    4.8840    7.7970   -3.6210 C   0  0  0  0  0  2  0  0  0  0  0  0
    6.9100    6.9730   -2.4760 C   0  0  0  0  0  1  0  0  0  0  0  0
    6.2010    8.2190   -3.0500 C   0  0  0  0  0  2  0  0  0  0  0  0
  1  3  1  0  0  0  0
  2  1  2  0  0  0  0
  3  4  2  0  0  0  0
  4  5  1  0  0  0  0
  5 10  2  0  0  0  0
  5  6  1  0  0  0  0
  6  7  2  0  0  0  0
  7  8  1  0  0  0  0
  8 11  1  0  0  0  0
  9  8  2  0  0  0  0
 10  9  1  0  0  0  0
 11 12  1  0  0  0  0
 13  1  1  0  0  0  0
 14 17  1  6  0  0  0
 14 13  1  0  0  0  0
 15 16  1  0  0  0  0
 15 14  1  0  0  0  0
 18 20  1  0  0  0  0
 18 17  1  0  0  0  0
 20 19  1  0  0  0  0
M  END
>  <MODEL>
4

>  <REMARK>
 VINA RESULT:      -3.9      2.448      3.976
  Name = bg33_3_ligand
  12 active torsions:
  status: ('A' for Active; 'I' for Inactive)
    1  A    between atoms: C_1  and  C_2
    2  A    between atoms: C_2  and  C_3
    3  A    between atoms: C_3  and  C_4
    4  A    between atoms: C_4  and  C_5
    5  A    between atoms: C_5  and  C_6
    6  A    between atoms: C_5  and  O_8
    7  A    between atoms: C_6  and  C_7
    8  A    between atoms: O_8  and  C_9
    9  A    between atoms: C_9  and  C_11
   10  A    between atoms: C_12  and  C_13
   11  A    between atoms: C_16  and  O_17
   12  A    between atoms: O_17  and  C_18
                            x       y       z     vdW  Elec       q    Type
                         _______ _______ _______ _____ _____    ______ ____

>  <TORSDO>
F 9

$$$$
bg33_3_ligand
 OpenBabel10092621153D

 20 20  0  0  1  0  0  0  0  0999 V2000
    1.9210    6.5770    6.9880 C   0  0  0  0  0  0  0  0  0  0  0  0
    2.7970    6.4470    7.8110 O   0  0  0  0  0  0  0  0  0  0  0  0
    0.4270    6.2470    7.3170 C   0  0  0  0  0  3  0  0  0  0  0  0
    0.1550    5.1930    8.1200 C   0  0  0  0  0  3  0  0  0  0  0  0
   -1.1940    4.7660    8.3900 C   0  0  0  0  0  0  0  0  0  0  0  0
   -1.5150    4.1080    9.5560 C   0  0  0  0  0  3  0  0  0  0  0  0
   -2.7790    3.7430    9.8550 C   0  0  0  0  0  3  0  0  0  0  0  0
   -3.7730    4.0430    8.9520 C   0  0  0  0  0  0  0  0  0  0  0  0
   -3.4880    4.6600    7.7750 C   0  0  0  0  0  3  0  0  0  0  0  0
   -2.1900    5.0310    7.4970 C   0  0  0  0  0  3  0  0  0  0  0  0
   -5.0570    3.6790    9.1580 O   0  0  0  0  0  0  0  0  0  0  0  0
   -6.0370    4.5910    8.6960 C   0  0  0  0  0  1  0  0  0  0  0  0
    2.2620    6.9660    5.8340 O   0  0  0  0  0  0  0  0  0  0  0  0
    3.0800    6.0570    5.0320 C   0  0  2  0  0  3  0  0  0  0  0  0
    4.2220    6.7980    4.5130 C   0  0  0  0  0  2  0  0  0  0  0  0
    4.9340    6.0920    3.3970 C   0  0  0  0  0  1  0  0  0  0  0  0
    2.2720    5.4720    3.8870 C   0  0  0  0  0  2  0  0  0  0  0  0
    2.0390    3.9770    4.1960 C   0  0  0  0  0  2  0  0  0  0  0  0
   -0.3070    4.7360    4.0880 C   0  0  0  0  0  1  0  0  0  0  0  0
    0.6580    3.6950    4.6960 C   0  0  0  0  0  2  0  0  0  0  0  0
  1  3  1  0  0  0  0
  1  2  2  0  0  0  0
  3  4  2  0  0  0  0
  4  5  1  0  0  0  0
  5  6  1  0  0  0  0
  6  7  2  0  0  0  0
  8 11  1  0  0  0  0
  8  7  1  0  0  0  0
  9  8  2  0  0  0  0
 10  9  1  0  0  0  0
 10  5  2  0  0  0  0
 12 11  1  0  0  0  0
 13  1  1  0  0  0  0
 14 17  1  6  0  0  0
 14 13  1  0  0  0  0
 15 14  1  0  0  0  0
 16 15  1  0  0  0  0
 17 18  1  0  0  0  0
 18 20  1  0  0  0  0
 19 20  1  0  0  0  0
M  END
>  <MODEL>
5

>  <REMARK>
 VINA RESULT:      -3.9      3.146      5.673
  Name = bg33_3_ligand
  12 active torsions:
  status: ('A' for Active; 'I' for Inactive)
    1  A    between atoms: C_1  and  C_2
    2  A    between atoms: C_2  and  C_3
    3  A    between atoms: C_3  and  C_4
    4  A    between atoms: C_4  and  C_5
    5  A    between atoms: C_5  and  C_6
    6  A    between atoms: C_5  and  O_8
    7  A    between atoms: C_6  and  C_7
    8  A    between atoms: O_8  and  C_9
    9  A    between atoms: C_9  and  C_11
   10  A    between atoms: C_12  and  C_13
   11  A    between atoms: C_16  and  O_17
   12  A    between atoms: O_17  and  C_18
                            x       y       z     vdW  Elec       q    Type
                         _______ _______ _______ _____ _____    ______ ____

>  <TORSDO>
F 9

$$$$
bg33_3_ligand
 OpenBabel10092621153D

 20 20  0  0  1  0  0  0  0  0999 V2000
    4.1480    6.9850    0.9920 C   0  0  0  0  0  0  0  0  0  0  0  0
    5.1600    7.6410    0.8940 O   0  0  0  0  0  0  0  0  0  0  0  0
    3.4250    6.7880    2.3670 C   0  0  0  0  0  3  0  0  0  0  0  0
    3.4270    5.5590    2.9320 C   0  0  0  0  0  3  0  0  0  0  0  0
    2.7030    5.2750    4.1440 C   0  0  0  0  0  0  0  0  0  0  0  0
    2.6890    6.1650    5.1950 C   0  0  0  0  0  3  0  0  0  0  0  0
    1.9780    5.9440    6.3190 C   0  0  0  0  0  3  0  0  0  0  0  0
    1.2460    4.7820    6.4080 C   0  0  0  0  0  0  0  0  0  0  0  0
    1.2640    3.8640    5.4060 C   0  0  0  0  0  3  0  0  0  0  0  0
    1.9920    4.1180    4.2620 C   0  0  0  0  0  3  0  0  0  0  0  0
    0.5380    4.4680    7.5140 O   0  0  0  0  0  0  0  0  0  0  0  0
    1.0410    4.9820    8.7340 C   0  0  0  0  0  1  0  0  0  0  0  0
    3.7070    6.4380   -0.0590 O   0  0  0  0  0  0  0  0  0  0  0  0
    3.6160    7.2670   -1.2610 C   0  0  2  0  0  3  0  0  0  0  0  0
    2.3090    7.9130   -1.2790 C   0  0  0  0  0  2  0  0  0  0  0  0
    1.3120    7.2170   -2.1560 C   0  0  0  0  0  1  0  0  0  0  0  0
    3.7990    6.4260   -2.5120 C   0  0  0  0  0  2  0  0  0  0  0  0
    4.8710    7.1160   -3.3830 C   0  0  0  0  0  2  0  0  0  0  0  0
    5.1770    9.1160   -4.7970 C   0  0  0  0  0  1  0  0  0  0  0  0
    4.2870    7.8830   -4.5260 C   0  0  0  0  0  2  0  0  0  0  0  0
  1  3  1  0  0  0  0
  2  1  2  0  0  0  0
  3  4  2  0  0  0  0
  4  5  1  0  0  0  0
  5 10  2  0  0  0  0
  5  6  1  0  0  0  0
  6  7  2  0  0  0  0
  7  8  1  0  0  0  0
  8 11  1  0  0  0  0
  9  8  2  0  0  0  0
 10  9  1  0  0  0  0
 11 12  1  0  0  0  0
 13  1  1  0  0  0  0
 14 17  1  6  0  0  0
 14 13  1  0  0  0  0
 15 14  1  0  0  0  0
 16 15  1  0  0  0  0
 18 17  1  0  0  0  0
 19 20  1  0  0  0  0
 20 18  1  0  0  0  0
M  END
>  <MODEL>
6

>  <REMARK>
 VINA RESULT:      -3.9      2.483      3.803
  Name = bg33_3_ligand
  12 active torsions:
  status: ('A' for Active; 'I' for Inactive)
    1  A    between atoms: C_1  and  C_2
    2  A    between atoms: C_2  and  C_3
    3  A    between atoms: C_3  and  C_4
    4  A    between atoms: C_4  and  C_5
    5  A    between atoms: C_5  and  C_6
    6  A    between atoms: C_5  and  O_8
    7  A    between atoms: C_6  and  C_7
    8  A    between atoms: O_8  and  C_9
    9  A    between atoms: C_9  and  C_11
   10  A    between atoms: C_12  and  C_13
   11  A    between atoms: C_16  and  O_17
   12  A    between atoms: O_17  and  C_18
                            x       y       z     vdW  Elec       q    Type
                         _______ _______ _______ _____ _____    ______ ____

>  <TORSDO>
F 9

$$$$
bg33_3_ligand
 OpenBabel10092621153D

 20 20  0  0  1  0  0  0  0  0999 V2000
    5.5430    7.0810    2.2820 C   0  0  0  0  0  0  0  0  0  0  0  0
    6.4900    6.6880    2.9230 O   0  0  0  0  0  0  0  0  0  0  0  0
    4.0710    6.8680    2.7720 C   0  0  0  0  0  3  0  0  0  0  0  0
    3.7380    5.6840    3.3340 C   0  0  0  0  0  3  0  0  0  0  0  0
    2.3850    5.3760    3.7190 C   0  0  0  0  0  0  0  0  0  0  0  0
    2.0310    4.1120    4.1370 C   0  0  0  0  0  3  0  0  0  0  0  0
    0.7830    3.8120    4.5510 C   0  0  0  0  0  3  0  0  0  0  0  0
   -0.1620    4.8110    4.5480 C   0  0  0  0  0  0  0  0  0  0  0  0
    0.1420    6.0610    4.1090 C   0  0  0  0  0  3  0  0  0  0  0  0
    1.4270    6.3460    3.6990 C   0  0  0  0  0  3  0  0  0  0  0  0
   -1.4430    4.5840    4.9100 O   0  0  0  0  0  0  0  0  0  0  0  0
   -2.3010    5.7110    4.8810 C   0  0  0  0  0  1  0  0  0  0  0  0
    5.7850    7.6520    1.1800 O   0  0  0  0  0  0  0  0  0  0  0  0
    4.6690    7.8160    0.2490 C   0  0  2  0  0  3  0  0  0  0  0  0
    4.9760    7.0860   -0.9750 C   0  0  0  0  0  2  0  0  0  0  0  0
    3.8150    6.3010   -1.5080 C   0  0  0  0  0  1  0  0  0  0  0  0
    4.4390    9.2840   -0.0630 C   0  0  0  0  0  2  0  0  0  0  0  0
    3.0870    9.6870    0.5660 C   0  0  0  0  0  2  0  0  0  0  0  0
    0.9890    8.3890    0.6300 C   0  0  0  0  0  1  0  0  0  0  0  0
    1.9120    9.2560   -0.2530 C   0  0  0  0  0  2  0  0  0  0  0  0
  1  3  1  0  0  0  0
  1  2  2  0  0  0  0
  3  4  2  0  0  0  0
  4  5  1  0  0  0  0
  5  6  1  0  0  0  0
  6  7  2  0  0  0  0
  8  7  1  0  0  0  0
  8 11  1  0  0  0  0
  9  8  2  0  0  0  0
 10  5  2  0  0  0  0
 10  9  1  0  0  0  0
 12 11  1  0  0  0  0
 13  1  1  0  0  0  0
 14 15  1  6  0  0  0
 14 13  1  0  0  0  0
 16 15  1  0  0  0  0
 17 14  1  0  0  0  0
 17 18  1  0  0  0  0
 20 18  1  0  0  0  0
 20 19  1  0  0  0  0
M  END
>  <MODEL>
7

>  <REMARK>
 VINA RESULT:      -3.9      1.374      1.881
  Name = bg33_3_ligand
  12 active torsions:
  status: ('A' for Active; 'I' for Inactive)
    1  A    between atoms: C_1  and  C_2
    2  A    between atoms: C_2  and  C_3
    3  A    between atoms: C_3  and  C_4
    4  A    between atoms: C_4  and  C_5
    5  A    between atoms: C_5  and  C_6
    6  A    between atoms: C_5  and  O_8
    7  A    between atoms: C_6  and  C_7
    8  A    between atoms: O_8  and  C_9
    9  A    between atoms: C_9  and  C_11
   10  A    between atoms: C_12  and  C_13
   11  A    between atoms: C_16  and  O_17
   12  A    between atoms: O_17  and  C_18
                            x       y       z     vdW  Elec       q    Type
                         _______ _______ _______ _____ _____    ______ ____

>  <TORSDO>
F 9

$$$$
bg33_3_ligand
 OpenBabel10092621153D

 20 20  0  0  1  0  0  0  0  0999 V2000
    5.3400    8.4290    0.0550 C   0  0  0  0  0  0  0  0  0  0  0  0
    5.9570    9.3680    0.5030 O   0  0  0  0  0  0  0  0  0  0  0  0
    4.7530    7.3120    0.9810 C   0  0  0  0  0  3  0  0  0  0  0  0
    3.5780    7.5400    1.6110 C   0  0  0  0  0  3  0  0  0  0  0  0
    3.0220    6.6040    2.5540 C   0  0  0  0  0  0  0  0  0  0  0  0
    1.8940    6.9090    3.2830 C   0  0  0  0  0  3  0  0  0  0  0  0
    1.3260    6.0310    4.1350 C   0  0  0  0  0  3  0  0  0  0  0  0
    1.9050    4.7900    4.2730 C   0  0  0  0  0  0  0  0  0  0  0  0
    3.0380    4.4670    3.5950 C   0  0  0  0  0  3  0  0  0  0  0  0
    3.5950    5.3790    2.7230 C   0  0  0  0  0  3  0  0  0  0  0  0
    1.4200    3.8680    5.1320 O   0  0  0  0  0  0  0  0  0  0  0  0
    1.1080    4.3400    6.4300 C   0  0  0  0  0  1  0  0  0  0  0  0
    5.2070    8.3690   -1.2010 O   0  0  0  0  0  0  0  0  0  0  0  0
    5.4830    7.0840   -1.8450 C   0  0  2  0  0  3  0  0  0  0  0  0
    6.7760    7.1690   -2.5110 C   0  0  0  0  0  2  0  0  0  0  0  0
    7.8480    6.3650   -1.8380 C   0  0  0  0  0  1  0  0  0  0  0  0
    4.3990    6.7410   -2.8510 C   0  0  0  0  0  2  0  0  0  0  0  0
    3.2680    6.0170   -2.0890 C   0  0  0  0  0  2  0  0  0  0  0  0
    2.1450    8.0030   -3.0290 C   0  0  0  0  0  1  0  0  0  0  0  0
    1.9490    6.7120   -2.2050 C   0  0  0  0  0  2  0  0  0  0  0  0
  1  2  2  0  0  0  0
  1  3  1  0  0  0  0
  3  4  2  0  0  0  0
  4  5  1  0  0  0  0
  5 10  2  0  0  0  0
  5  6  1  0  0  0  0
  6  7  2  0  0  0  0
  7  8  1  0  0  0  0
  8 11  1  0  0  0  0
  9  8  2  0  0  0  0
 10  9  1  0  0  0  0
 11 12  1  0  0  0  0
 13  1  1  0  0  0  0
 14 17  1  6  0  0  0
 14 13  1  0  0  0  0
 15 14  1  0  0  0  0
 15 16  1  0  0  0  0
 17 18  1  0  0  0  0
 19 20  1  0  0  0  0
 20 18  1  0  0  0  0
M  END
>  <MODEL>
8

>  <REMARK>
 VINA RESULT:      -3.8      2.211      3.355
  Name = bg33_3_ligand
  12 active torsions:
  status: ('A' for Active; 'I' for Inactive)
    1  A    between atoms: C_1  and  C_2
    2  A    between atoms: C_2  and  C_3
    3  A    between atoms: C_3  and  C_4
    4  A    between atoms: C_4  and  C_5
    5  A    between atoms: C_5  and  C_6
    6  A    between atoms: C_5  and  O_8
    7  A    between atoms: C_6  and  C_7
    8  A    between atoms: O_8  and  C_9
    9  A    between atoms: C_9  and  C_11
   10  A    between atoms: C_12  and  C_13
   11  A    between atoms: C_16  and  O_17
   12  A    between atoms: O_17  and  C_18
                            x       y       z     vdW  Elec       q    Type
                         _______ _______ _______ _____ _____    ______ ____

>  <TORSDO>
F 9

$$$$
bg33_3_ligand
 OpenBabel10092621153D

 20 20  0  0  1  0  0  0  0  0999 V2000
    1.1730    8.2230    3.2460 C   0  0  0  0  0  0  0  0  0  0  0  0
    1.4950    9.3340    3.6010 O   0  0  0  0  0  0  0  0  0  0  0  0
    1.4140    7.7260    1.7800 C   0  0  0  0  0  3  0  0  0  0  0  0
    2.6370    7.8940    1.2290 C   0  0  0  0  0  3  0  0  0  0  0  0
    2.9100    7.5530   -0.1440 C   0  0  0  0  0  0  0  0  0  0  0  0
    4.1050    6.9780   -0.5130 C   0  0  0  0  0  3  0  0  0  0  0  0
    4.3650    6.6050   -1.7830 C   0  0  0  0  0  3  0  0  0  0  0  0
    3.3930    6.8130   -2.7340 C   0  0  0  0  0  0  0  0  0  0  0  0
    2.2150    7.4100   -2.4120 C   0  0  0  0  0  3  0  0  0  0  0  0
    1.9700    7.7750   -1.1050 C   0  0  0  0  0  3  0  0  0  0  0  0
    3.5880    6.5030   -4.0340 O   0  0  0  0  0  0  0  0  0  0  0  0
    3.6140    7.5980   -4.9310 C   0  0  0  0  0  1  0  0  0  0  0  0
    0.6080    7.4810    4.0990 O   0  0  0  0  0  0  0  0  0  0  0  0
    0.6940    6.0350    3.8950 C   0  0  2  0  0  3  0  0  0  0  0  0
   -0.5910    5.4420    4.2400 C   0  0  0  0  0  2  0  0  0  0  0  0
   -0.7220    5.1050    5.6950 C   0  0  0  0  0  1  0  0  0  0  0  0
    1.7930    5.4340    4.7520 C   0  0  0  0  0  2  0  0  0  0  0  0
    2.4720    4.3200    3.9250 C   0  0  0  0  0  2  0  0  0  0  0  0
    4.4060    5.8400    3.7190 C   0  0  0  0  0  1  0  0  0  0  0  0
    3.4940    4.8460    2.9680 C   0  0  0  0  0  2  0  0  0  0  0  0
  1  2  2  0  0  0  0
  1 13  1  0  0  0  0
  3  1  1  0  0  0  0
  4  3  2  0  0  0  0
  5  4  1  0  0  0  0
  6  5  1  0  0  0  0
  7  6  2  0  0  0  0
  8  9  2  0  0  0  0
  8  7  1  0  0  0  0
  9 10  1  0  0  0  0
 10  5  2  0  0  0  0
 11  8  1  0  0  0  0
 12 11  1  0  0  0  0
 14 13  1  0  0  0  0
 14 15  1  1  0  0  0
 14 17  1  0  0  0  0
 15 16  1  0  0  0  0
 18 17  1  0  0  0  0
 20 19  1  0  0  0  0
 20 18  1  0  0  0  0
M  END
>  <MODEL>
9

>  <REMARK>
 VINA RESULT:      -3.8      2.699      7.081
  Name = bg33_3_ligand
  12 active torsions:
  status: ('A' for Active; 'I' for Inactive)
    1  A    between atoms: C_1  and  C_2
    2  A    between atoms: C_2  and  C_3
    3  A    between atoms: C_3  and  C_4
    4  A    between atoms: C_4  and  C_5
    5  A    between atoms: C_5  and  C_6
    6  A    between atoms: C_5  and  O_8
    7  A    between atoms: C_6  and  C_7
    8  A    between atoms: O_8  and  C_9
    9  A    between atoms: C_9  and  C_11
   10  A    between atoms: C_12  and  C_13
   11  A    between atoms: C_16  and  O_17
   12  A    between atoms: O_17  and  C_18
                            x       y       z     vdW  Elec       q    Type
                         _______ _______ _______ _____ _____    ______ ____

>  <TORSDO>
F 9

$$$$
