ox2_esm1_f8_ligand
 OpenBabel10092621193D

 18 19  0  0  0  0  0  0  0  0999 V2000
   -3.9540   -3.4530   -0.3760 C   0  0  0  0  0  0  0  0  0  0  0  0
   -3.1160   -2.3530   -0.5480 C   0  0  0  0  0  3  0  0  0  0  0  0
   -1.8860   -2.5030   -1.1620 C   0  0  0  0  0  3  0  0  0  0  0  0
   -1.4700   -3.7500   -1.5960 C   0  0  0  0  0  0  0  0  0  0  0  0
   -2.3090   -4.8620   -1.4290 C   0  0  0  0  0  0  0  0  0  0  0  0
   -3.5500   -4.6940   -0.8190 C   0  0  0  0  0  3  0  0  0  0  0  0
   -5.5990   -2.0890    0.7740 C   0  0  0  0  0  1  0  0  0  0  0  0
   -5.1790   -3.3560    0.2160 O   0  0  0  0  0  0  0  0  0  0  0  0
   -0.1390   -3.9300   -2.2520 C   0  0  0  0  0  0  0  0  0  0  0  0
   -0.0820   -4.1560   -3.4420 O   0  0  0  0  0  0  0  0  0  0  0  0
    1.1170   -3.8270   -1.4800 C   0  0  0  0  0  0  0  0  0  0  0  0
    2.1610   -3.0410   -1.9610 C   0  0  0  0  0  3  0  0  0  0  0  0
    3.3390   -2.9380   -1.2270 C   0  0  0  0  0  3  0  0  0  0  0  0
    3.5040   -3.6360   -0.0380 C   0  0  0  0  0  3  0  0  0  0  0  0
    2.4760   -4.4490    0.4120 C   0  0  0  0  0  3  0  0  0  0  0  0
    1.2820   -4.5430   -0.3040 C   0  0  0  0  0  3  0  0  0  0  0  0
   -1.8910   -6.0870   -1.8710 O   0  0  0  0  0  0  0  0  0  0  0  0
   -2.4920   -6.8710   -1.7930 H   0  0  0  0  0  0  0  0  0  0  0  0
  1  8  1  0  0  0  0
  2  1  1  0  0  0  0
  3  2  2  0  0  0  0
  4  5  2  0  0  0  0
  4  3  1  0  0  0  0
  5  6  1  0  0  0  0
  6  1  2  0  0  0  0
  8  7  1  0  0  0  0
  9  4  1  0  0  0  0
  9 11  1  0  0  0  0
 10  9  2  0  0  0  0
 11 16  1  0  0  0  0
 12 11  2  0  0  0  0
 12 13  1  0  0  0  0
 13 14  2  0  0  0  0
 14 15  1  0  0  0  0
 16 15  2  0  0  0  0
 17 18  1  0  0  0  0
 17  5  1  0  0  0  0
M  END
>  <MODEL>
1

>  <REMARK>
 VINA RESULT:      -6.5      0.000      0.000
  Name = ox2_esm1_f8_ligand
  5 active torsions:
  status: ('A' for Active; 'I' for Inactive)
    1  A    between atoms: C_1  and  O_2
    2  A    between atoms: O_2  and  C_3
    3  A    between atoms: C_6  and  C_7
    4  A    between atoms: C_7  and  C_9
    5  A    between atoms: C_15  and  O_16
                            x       y       z     vdW  Elec       q    Type
                         _______ _______ _______ _____ _____    ______ ____

>  <TORSDO>
F 4

$$$$
ox2_esm1_f8_ligand
 OpenBabel10092621193D

 18 19  0  0  0  0  0  0  0  0999 V2000
    2.5950   -7.3310    4.4290 C   0  0  0  0  0  0  0  0  0  0  0  0
    1.9360   -6.1050    4.4720 C   0  0  0  0  0  3  0  0  0  0  0  0
    1.3510   -5.5880    3.3300 C   0  0  0  0  0  3  0  0  0  0  0  0
    1.4280   -6.2780    2.1330 C   0  0  0  0  0  0  0  0  0  0  0  0
    2.0870   -7.5140    2.0820 C   0  0  0  0  0  0  0  0  0  0  0  0
    2.6640   -8.0290    3.2420 C   0  0  0  0  0  3  0  0  0  0  0  0
    3.1810   -7.1580    6.7770 C   0  0  0  0  0  1  0  0  0  0  0  0
    3.1820   -7.8880    5.5280 O   0  0  0  0  0  0  0  0  0  0  0  0
    0.8090   -5.7270    0.8880 C   0  0  0  0  0  0  0  0  0  0  0  0
   -0.3020   -6.0860    0.5620 O   0  0  0  0  0  0  0  0  0  0  0  0
    1.5210   -4.7410    0.0490 C   0  0  0  0  0  0  0  0  0  0  0  0
    2.8490   -4.4280    0.3290 C   0  0  0  0  0  3  0  0  0  0  0  0
    3.5210   -3.5070   -0.4690 C   0  0  0  0  0  3  0  0  0  0  0  0
    2.8770   -2.8660   -1.5190 C   0  0  0  0  0  3  0  0  0  0  0  0
    1.5430   -3.1520   -1.7640 C   0  0  0  0  0  3  0  0  0  0  0  0
    0.8660   -4.0910   -0.9850 C   0  0  0  0  0  3  0  0  0  0  0  0
    2.1490   -8.1910    0.8950 O   0  0  0  0  0  0  0  0  0  0  0  0
    1.5590   -8.9720    0.7400 H   0  0  0  0  0  0  0  0  0  0  0  0
  1  2  1  0  0  0  0
  1  8  1  0  0  0  0
  3  2  2  0  0  0  0
  4  3  1  0  0  0  0
  5  4  2  0  0  0  0
  5  6  1  0  0  0  0
  6  1  2  0  0  0  0
  8  7  1  0  0  0  0
  9  4  1  0  0  0  0
 10  9  2  0  0  0  0
 11 12  1  0  0  0  0
 11  9  1  0  0  0  0
 13 12  2  0  0  0  0
 14 13  1  0  0  0  0
 15 14  2  0  0  0  0
 15 16  1  0  0  0  0
 16 11  2  0  0  0  0
 17  5  1  0  0  0  0
 18 17  1  0  0  0  0
M  END
>  <MODEL>
2

>  <REMARK>
 VINA RESULT:      -6.2      3.980      6.243
  Name = ox2_esm1_f8_ligand
  5 active torsions:
  status: ('A' for Active; 'I' for Inactive)
    1  A    between atoms: C_1  and  O_2
    2  A    between atoms: O_2  and  C_3
    3  A    between atoms: C_6  and  C_7
    4  A    between atoms: C_7  and  C_9
    5  A    between atoms: C_15  and  O_16
                            x       y       z     vdW  Elec       q    Type
                         _______ _______ _______ _____ _____    ______ ____

>  <TORSDO>
F 4

$$$$
ox2_esm1_f8_ligand
 OpenBabel10092621193D

 18 19  0  0  0  0  0  0  0  0999 V2000
    3.2020   -3.3570   -0.4400 C   0  0  0  0  0  0  0  0  0  0  0  0
    2.5350   -2.9130   -1.5790 C   0  0  0  0  0  3  0  0  0  0  0  0
    1.2920   -3.4260   -1.9030 C   0  0  0  0  0  3  0  0  0  0  0  0
    0.7070   -4.3950   -1.1060 C   0  0  0  0  0  0  0  0  0  0  0  0
    1.3710   -4.8450    0.0450 C   0  0  0  0  0  0  0  0  0  0  0  0
    2.6190   -4.3120    0.3650 C   0  0  0  0  0  3  0  0  0  0  0  0
    5.3800   -2.5140   -1.0970 C   0  0  0  0  0  1  0  0  0  0  0  0
    4.4260   -2.8780   -0.0730 O   0  0  0  0  0  0  0  0  0  0  0  0
   -0.6320   -4.9660   -1.4480 C   0  0  0  0  0  0  0  0  0  0  0  0
   -0.7890   -6.1680   -1.4460 O   0  0  0  0  0  0  0  0  0  0  0  0
   -1.7770   -4.0910   -1.7790 C   0  0  0  0  0  0  0  0  0  0  0  0
   -2.1800   -3.9540   -3.1040 C   0  0  0  0  0  3  0  0  0  0  0  0
   -3.2640   -3.1380   -3.4120 C   0  0  0  0  0  3  0  0  0  0  0  0
   -3.9290   -2.4280   -2.4220 C   0  0  0  0  0  3  0  0  0  0  0  0
   -3.4940   -2.5370   -1.1100 C   0  0  0  0  0  3  0  0  0  0  0  0
   -2.4220   -3.3700   -0.7870 C   0  0  0  0  0  3  0  0  0  0  0  0
    0.7790   -5.7950    0.8300 O   0  0  0  0  0  0  0  0  0  0  0  0
    1.0600   -6.7430    0.7550 H   0  0  0  0  0  0  0  0  0  0  0  0
  1  8  1  0  0  0  0
  1  6  1  0  0  0  0
  2  1  2  0  0  0  0
  3  2  1  0  0  0  0
  3  4  2  0  0  0  0
  4  5  1  0  0  0  0
  5  6  2  0  0  0  0
  5 17  1  0  0  0  0
  7  8  1  0  0  0  0
  9 10  2  0  0  0  0
  9  4  1  0  0  0  0
 11  9  1  0  0  0  0
 11 16  1  0  0  0  0
 12 11  2  0  0  0  0
 13 12  1  0  0  0  0
 13 14  2  0  0  0  0
 14 15  1  0  0  0  0
 15 16  2  0  0  0  0
 18 17  1  0  0  0  0
M  END
>  <MODEL>
3

>  <REMARK>
 VINA RESULT:      -6.0      2.076      5.920
  Name = ox2_esm1_f8_ligand
  5 active torsions:
  status: ('A' for Active; 'I' for Inactive)
    1  A    between atoms: C_1  and  O_2
    2  A    between atoms: O_2  and  C_3
    3  A    between atoms: C_6  and  C_7
    4  A    between atoms: C_7  and  C_9
    5  A    between atoms: C_15  and  O_16
                            x       y       z     vdW  Elec       q    Type
                         _______ _______ _______ _____ _____    ______ ____

>  <TORSDO>
F 4

$$$$
ox2_esm1_f8_ligand
 OpenBabel10092621193D

 18 19  0  0  0  0  0  0  0  0999 V2000
   -3.7580   -2.5580   -2.7670 C   0  0  0  0  0  0  0  0  0  0  0  0
   -3.3410   -2.5150   -1.4390 C   0  0  0  0  0  3  0  0  0  0  0  0
   -2.2840   -3.3000   -1.0150 C   0  0  0  0  0  3  0  0  0  0  0  0
   -1.6420   -4.1460   -1.9030 C   0  0  0  0  0  0  0  0  0  0  0  0
   -2.0550   -4.1920   -3.2430 C   0  0  0  0  0  0  0  0  0  0  0  0
   -3.1150   -3.3880   -3.6590 C   0  0  0  0  0  3  0  0  0  0  0  0
   -5.9020   -2.4440   -3.8970 C   0  0  0  0  0  1  0  0  0  0  0  0
   -4.7900   -1.7980   -3.2360 O   0  0  0  0  0  0  0  0  0  0  0  0
   -0.5050   -5.0080   -1.4580 C   0  0  0  0  0  0  0  0  0  0  0  0
   -0.6440   -6.2110   -1.4190 O   0  0  0  0  0  0  0  0  0  0  0  0
    0.7970   -4.4220   -1.0740 C   0  0  0  0  0  0  0  0  0  0  0  0
    1.4270   -4.8470    0.0930 C   0  0  0  0  0  3  0  0  0  0  0  0
    2.6570   -4.3010    0.4470 C   0  0  0  0  0  3  0  0  0  0  0  0
    3.2500   -3.3110   -0.3250 C   0  0  0  0  0  3  0  0  0  0  0  0
    2.5950   -2.8640   -1.4630 C   0  0  0  0  0  3  0  0  0  0  0  0
    1.3720   -3.4200   -1.8400 C   0  0  0  0  0  3  0  0  0  0  0  0
   -1.4070   -5.0240   -4.1140 O   0  0  0  0  0  0  0  0  0  0  0  0
   -0.4250   -4.9570   -4.2240 H   0  0  0  0  0  0  0  0  0  0  0  0
  1  2  1  0  0  0  0
  2  3  2  0  0  0  0
  4  9  1  0  0  0  0
  4  3  1  0  0  0  0
  5  4  2  0  0  0  0
  6  5  1  0  0  0  0
  6  1  2  0  0  0  0
  7  8  1  0  0  0  0
  8  1  1  0  0  0  0
  9 10  2  0  0  0  0
  9 11  1  0  0  0  0
 11 12  1  0  0  0  0
 12 13  2  0  0  0  0
 14 13  1  0  0  0  0
 15 14  2  0  0  0  0
 16 15  1  0  0  0  0
 16 11  2  0  0  0  0
 17  5  1  0  0  0  0
 18 17  1  0  0  0  0
M  END
>  <MODEL>
4

>  <REMARK>
 VINA RESULT:      -6.0      1.848      2.419
  Name = ox2_esm1_f8_ligand
  5 active torsions:
  status: ('A' for Active; 'I' for Inactive)
    1  A    between atoms: C_1  and  O_2
    2  A    between atoms: O_2  and  C_3
    3  A    between atoms: C_6  and  C_7
    4  A    between atoms: C_7  and  C_9
    5  A    between atoms: C_15  and  O_16
                            x       y       z     vdW  Elec       q    Type
                         _______ _______ _______ _____ _____    ______ ____

>  <TORSDO>
F 4

$$$$
ox2_esm1_f8_ligand
 OpenBabel10092621193D

 18 19  0  0  0  0  0  0  0  0999 V2000
    1.2610   -6.4090    1.8820 C   0  0  0  0  0  0  0  0  0  0  0  0
    0.5230   -6.8030    0.7690 C   0  0  0  0  0  3  0  0  0  0  0  0
    0.3880   -5.9530   -0.3140 C   0  0  0  0  0  3  0  0  0  0  0  0
    0.9710   -4.6980   -0.2940 C   0  0  0  0  0  0  0  0  0  0  0  0
    1.7180   -4.2940    0.8230 C   0  0  0  0  0  0  0  0  0  0  0  0
    1.8550   -5.1650    1.9030 C   0  0  0  0  0  3  0  0  0  0  0  0
    2.0560   -6.6730    4.1590 C   0  0  0  0  0  1  0  0  0  0  0  0
    1.4310   -7.2120    2.9720 O   0  0  0  0  0  0  0  0  0  0  0  0
    0.8250   -3.7640   -1.4520 C   0  0  0  0  0  0  0  0  0  0  0  0
    1.8030   -3.2030   -1.8970 O   0  0  0  0  0  0  0  0  0  0  0  0
   -0.4910   -3.5180   -2.0770 C   0  0  0  0  0  0  0  0  0  0  0  0
   -1.4370   -2.7420   -1.4120 C   0  0  0  0  0  3  0  0  0  0  0  0
   -2.6720   -2.5040   -2.0080 C   0  0  0  0  0  3  0  0  0  0  0  0
   -2.9920   -3.0580   -3.2390 C   0  0  0  0  0  3  0  0  0  0  0  0
   -2.0600   -3.8650   -3.8750 C   0  0  0  0  0  3  0  0  0  0  0  0
   -0.8100   -4.0920   -3.2980 C   0  0  0  0  0  3  0  0  0  0  0  0
    2.2970   -3.0560    0.8280 O   0  0  0  0  0  0  0  0  0  0  0  0
    2.7370   -2.7120    0.0100 H   0  0  0  0  0  0  0  0  0  0  0  0
  1  6  1  0  0  0  0
  1  8  1  0  0  0  0
  2  1  2  0  0  0  0
  3  4  2  0  0  0  0
  3  2  1  0  0  0  0
  4  5  1  0  0  0  0
  5 17  1  0  0  0  0
  5  6  2  0  0  0  0
  8  7  1  0  0  0  0
  9  4  1  0  0  0  0
 10  9  2  0  0  0  0
 11  9  1  0  0  0  0
 11 12  1  0  0  0  0
 13 12  2  0  0  0  0
 14 13  1  0  0  0  0
 15 16  1  0  0  0  0
 15 14  2  0  0  0  0
 16 11  2  0  0  0  0
 18 17  1  0  0  0  0
M  END
>  <MODEL>
5

>  <REMARK>
 VINA RESULT:      -5.8      2.818      5.527
  Name = ox2_esm1_f8_ligand
  5 active torsions:
  status: ('A' for Active; 'I' for Inactive)
    1  A    between atoms: C_1  and  O_2
    2  A    between atoms: O_2  and  C_3
    3  A    between atoms: C_6  and  C_7
    4  A    between atoms: C_7  and  C_9
    5  A    between atoms: C_15  and  O_16
                            x       y       z     vdW  Elec       q    Type
                         _______ _______ _______ _____ _____    ______ ____

>  <TORSDO>
F 4

$$$$
ox2_esm1_f8_ligand
 OpenBabel10092621193D

 18 19  0  0  0  0  0  0  0  0999 V2000
    1.1730   -2.9680   -1.1660 C   0  0  0  0  0  0  0  0  0  0  0  0
    0.3660   -2.1700   -0.3580 C   0  0  0  0  0  3  0  0  0  0  0  0
   -0.9920   -2.0790   -0.6030 C   0  0  0  0  0  3  0  0  0  0  0  0
   -1.5580   -2.7670   -1.6620 C   0  0  0  0  0  0  0  0  0  0  0  0
   -0.7530   -3.5750   -2.4790 C   0  0  0  0  0  0  0  0  0  0  0  0
    0.6120   -3.6660   -2.2140 C   0  0  0  0  0  3  0  0  0  0  0  0
    2.9970   -4.0850   -0.0200 C   0  0  0  0  0  1  0  0  0  0  0  0
    2.5160   -3.0980   -0.9610 O   0  0  0  0  0  0  0  0  0  0  0  0
   -3.0230   -2.6700   -1.9460 C   0  0  0  0  0  0  0  0  0  0  0  0
   -3.3990   -2.2360   -3.0130 O   0  0  0  0  0  0  0  0  0  0  0  0
   -4.0270   -3.1070   -0.9530 C   0  0  0  0  0  0  0  0  0  0  0  0
   -4.6210   -2.1670   -0.1140 C   0  0  0  0  0  3  0  0  0  0  0  0
   -5.5730   -2.5790    0.8130 C   0  0  0  0  0  3  0  0  0  0  0  0
   -5.9150   -3.9190    0.9420 C   0  0  0  0  0  3  0  0  0  0  0  0
   -5.2870   -4.8520    0.1320 C   0  0  0  0  0  3  0  0  0  0  0  0
   -4.3470   -4.4480   -0.8170 C   0  0  0  0  0  3  0  0  0  0  0  0
   -1.3250   -4.2580   -3.5160 O   0  0  0  0  0  0  0  0  0  0  0  0
   -2.2990   -4.4360   -3.5130 H   0  0  0  0  0  0  0  0  0  0  0  0
  1  8  1  0  0  0  0
  1  2  1  0  0  0  0
  3  2  2  0  0  0  0
  4  3  1  0  0  0  0
  5  6  1  0  0  0  0
  5  4  2  0  0  0  0
  6  1  2  0  0  0  0
  8  7  1  0  0  0  0
  9  4  1  0  0  0  0
  9 11  1  0  0  0  0
 10  9  2  0  0  0  0
 11 16  2  0  0  0  0
 11 12  1  0  0  0  0
 12 13  2  0  0  0  0
 13 14  1  0  0  0  0
 15 14  2  0  0  0  0
 16 15  1  0  0  0  0
 17 18  1  0  0  0  0
 17  5  1  0  0  0  0
M  END
>  <MODEL>
6

>  <REMARK>
 VINA RESULT:      -5.8      1.744      5.845
  Name = ox2_esm1_f8_ligand
  5 active torsions:
  status: ('A' for Active; 'I' for Inactive)
    1  A    between atoms: C_1  and  O_2
    2  A    between atoms: O_2  and  C_3
    3  A    between atoms: C_6  and  C_7
    4  A    between atoms: C_7  and  C_9
    5  A    between atoms: C_15  and  O_16
                            x       y       z     vdW  Elec       q    Type
                         _______ _______ _______ _____ _____    ______ ____

>  <TORSDO>
F 4

$$$$
ox2_esm1_f8_ligand
 OpenBabel10092621193D

 18 19  0  0  0  0  0  0  0  0999 V2000
   -2.8100   -5.0460   -4.1330 C   0  0  0  0  0  0  0  0  0  0  0  0
   -1.4890   -4.6750   -4.3690 C   0  0  0  0  0  3  0  0  0  0  0  0
   -0.7740   -3.9910   -3.4020 C   0  0  0  0  0  3  0  0  0  0  0  0
   -1.3700   -3.6570   -2.1980 C   0  0  0  0  0  0  0  0  0  0  0  0
   -2.6990   -4.0290   -1.9520 C   0  0  0  0  0  0  0  0  0  0  0  0
   -3.4050   -4.7270   -2.9310 C   0  0  0  0  0  3  0  0  0  0  0  0
   -4.9580   -5.4070   -5.2030 C   0  0  0  0  0  1  0  0  0  0  0  0
   -3.5560   -5.7280   -5.0500 O   0  0  0  0  0  0  0  0  0  0  0  0
   -0.6130   -2.9090   -1.1480 C   0  0  0  0  0  0  0  0  0  0  0  0
   -1.1370   -1.9730   -0.5830 O   0  0  0  0  0  0  0  0  0  0  0  0
    0.7630   -3.2950   -0.7730 C   0  0  0  0  0  0  0  0  0  0  0  0
    1.8410   -2.8170   -1.5140 C   0  0  0  0  0  3  0  0  0  0  0  0
    3.1360   -3.1740   -1.1540 C   0  0  0  0  0  3  0  0  0  0  0  0
    3.3710   -4.0310   -0.0870 C   0  0  0  0  0  3  0  0  0  0  0  0
    2.2900   -4.5370    0.6190 C   0  0  0  0  0  3  0  0  0  0  0  0
    0.9890   -4.1670    0.2800 C   0  0  0  0  0  3  0  0  0  0  0  0
   -3.2750   -3.7010   -0.7560 O   0  0  0  0  0  0  0  0  0  0  0  0
   -2.8710   -2.9960   -0.1900 H   0  0  0  0  0  0  0  0  0  0  0  0
  1  6  1  0  0  0  0
  2  1  2  0  0  0  0
  2  3  1  0  0  0  0
  3  4  2  0  0  0  0
  4  5  1  0  0  0  0
  4  9  1  0  0  0  0
  5 17  1  0  0  0  0
  6  5  2  0  0  0  0
  7  8  1  0  0  0  0
  8  1  1  0  0  0  0
  9 11  1  0  0  0  0
  9 10  2  0  0  0  0
 11 16  1  0  0  0  0
 12 13  1  0  0  0  0
 12 11  2  0  0  0  0
 13 14  2  0  0  0  0
 14 15  1  0  0  0  0
 16 15  2  0  0  0  0
 17 18  1  0  0  0  0
M  END
>  <MODEL>
7

>  <REMARK>
 VINA RESULT:      -5.8      2.146      3.123
  Name = ox2_esm1_f8_ligand
  5 active torsions:
  status: ('A' for Active; 'I' for Inactive)
    1  A    between atoms: C_1  and  O_2
    2  A    between atoms: O_2  and  C_3
    3  A    between atoms: C_6  and  C_7
    4  A    between atoms: C_7  and  C_9
    5  A    between atoms: C_15  and  O_16
                            x       y       z     vdW  Elec       q    Type
                         _______ _______ _______ _____ _____    ______ ____

>  <TORSDO>
F 4

$$$$
ox2_esm1_f8_ligand
 OpenBabel10092621193D

 18 19  0  0  0  0  0  0  0  0999 V2000
    0.0450   -6.3110    5.1770 C   0  0  0  0  0  0  0  0  0  0  0  0
    1.2480   -5.6300    5.0110 C   0  0  0  0  0  3  0  0  0  0  0  0
    1.8760   -5.6160    3.7780 C   0  0  0  0  0  3  0  0  0  0  0  0
    1.3230   -6.2920    2.7050 C   0  0  0  0  0  0  0  0  0  0  0  0
    0.1100   -6.9780    2.8640 C   0  0  0  0  0  0  0  0  0  0  0  0
   -0.5180   -6.9750    4.1080 C   0  0  0  0  0  3  0  0  0  0  0  0
   -1.8470   -5.6010    6.5200 C   0  0  0  0  0  1  0  0  0  0  0  0
   -0.6180   -6.3490    6.3690 O   0  0  0  0  0  0  0  0  0  0  0  0
    1.9950   -6.2950    1.3690 C   0  0  0  0  0  0  0  0  0  0  0  0
    2.6500   -7.2560    1.0300 O   0  0  0  0  0  0  0  0  0  0  0  0
    1.8680   -5.1490    0.4450 C   0  0  0  0  0  0  0  0  0  0  0  0
    2.9740   -4.3420    0.1900 C   0  0  0  0  0  3  0  0  0  0  0  0
    2.8550   -3.2690   -0.6890 C   0  0  0  0  0  3  0  0  0  0  0  0
    1.6400   -2.9680   -1.2890 C   0  0  0  0  0  3  0  0  0  0  0  0
    0.5330   -3.7510   -0.9960 C   0  0  0  0  0  3  0  0  0  0  0  0
    0.6470   -4.8420   -0.1340 C   0  0  0  0  0  3  0  0  0  0  0  0
   -0.4330   -7.6340    1.7930 O   0  0  0  0  0  0  0  0  0  0  0  0
   -0.9670   -7.1340    1.1260 H   0  0  0  0  0  0  0  0  0  0  0  0
  1  8  1  0  0  0  0
  2  1  1  0  0  0  0
  3  2  2  0  0  0  0
  4  5  2  0  0  0  0
  4  3  1  0  0  0  0
  5  6  1  0  0  0  0
  6  1  2  0  0  0  0
  8  7  1  0  0  0  0
  9  4  1  0  0  0  0
 10  9  2  0  0  0  0
 11  9  1  0  0  0  0
 12 11  1  0  0  0  0
 13 12  2  0  0  0  0
 14 15  2  0  0  0  0
 14 13  1  0  0  0  0
 15 16  1  0  0  0  0
 16 11  2  0  0  0  0
 17  5  1  0  0  0  0
 18 17  1  0  0  0  0
M  END
>  <MODEL>
8

>  <REMARK>
 VINA RESULT:      -5.7      4.242      5.398
  Name = ox2_esm1_f8_ligand
  5 active torsions:
  status: ('A' for Active; 'I' for Inactive)
    1  A    between atoms: C_1  and  O_2
    2  A    between atoms: O_2  and  C_3
    3  A    between atoms: C_6  and  C_7
    4  A    between atoms: C_7  and  C_9
    5  A    between atoms: C_15  and  O_16
                            x       y       z     vdW  Elec       q    Type
                         _______ _______ _______ _____ _____    ______ ____

>  <TORSDO>
F 4

$$$$
ox2_esm1_f8_ligand
 OpenBabel10092621193D

 18 19  0  0  0  0  0  0  0  0999 V2000
   -3.3220   -2.7350   -2.4960 C   0  0  0  0  0  0  0  0  0  0  0  0
   -2.8230   -2.4220   -1.2340 C   0  0  0  0  0  3  0  0  0  0  0  0
   -1.5130   -2.7250   -0.9080 C   0  0  0  0  0  3  0  0  0  0  0  0
   -0.6920   -3.3540   -1.8280 C   0  0  0  0  0  0  0  0  0  0  0  0
   -1.1870   -3.6700   -3.1020 C   0  0  0  0  0  0  0  0  0  0  0  0
   -2.5050   -3.3500   -3.4210 C   0  0  0  0  0  3  0  0  0  0  0  0
   -5.2140   -3.2070   -3.9400 C   0  0  0  0  0  1  0  0  0  0  0  0
   -4.6030   -2.4510   -2.8690 O   0  0  0  0  0  0  0  0  0  0  0  0
    0.7220   -3.6970   -1.4870 C   0  0  0  0  0  0  0  0  0  0  0  0
    1.6300   -3.1200   -2.0450 O   0  0  0  0  0  0  0  0  0  0  0  0
    1.0390   -4.7220   -0.4700 C   0  0  0  0  0  0  0  0  0  0  0  0
    0.3120   -5.9080   -0.4350 C   0  0  0  0  0  3  0  0  0  0  0  0
    0.6190   -6.8750    0.5170 C   0  0  0  0  0  3  0  0  0  0  0  0
    1.6160   -6.6610    1.4590 C   0  0  0  0  0  3  0  0  0  0  0  0
    2.3070   -5.4590    1.4440 C   0  0  0  0  0  3  0  0  0  0  0  0
    2.0230   -4.4920    0.4800 C   0  0  0  0  0  3  0  0  0  0  0  0
   -0.3640   -4.2830   -4.0060 O   0  0  0  0  0  0  0  0  0  0  0  0
    0.6180   -4.1860   -3.9250 H   0  0  0  0  0  0  0  0  0  0  0  0
  1  2  1  0  0  0  0
  2  3  2  0  0  0  0
  4  9  1  0  0  0  0
  4  3  1  0  0  0  0
  5  4  2  0  0  0  0
  6  5  1  0  0  0  0
  6  1  2  0  0  0  0
  7  8  1  0  0  0  0
  8  1  1  0  0  0  0
  9 11  1  0  0  0  0
 10  9  2  0  0  0  0
 11 12  2  0  0  0  0
 11 16  1  0  0  0  0
 12 13  1  0  0  0  0
 13 14  2  0  0  0  0
 15 14  1  0  0  0  0
 16 15  2  0  0  0  0
 17 18  1  0  0  0  0
 17  5  1  0  0  0  0
M  END
>  <MODEL>
9

>  <REMARK>
 VINA RESULT:      -5.6      1.925      2.807
  Name = ox2_esm1_f8_ligand
  5 active torsions:
  status: ('A' for Active; 'I' for Inactive)
    1  A    between atoms: C_1  and  O_2
    2  A    between atoms: O_2  and  C_3
    3  A    between atoms: C_6  and  C_7
    4  A    between atoms: C_7  and  C_9
    5  A    between atoms: C_15  and  O_16
                            x       y       z     vdW  Elec       q    Type
                         _______ _______ _______ _____ _____    ______ ____

>  <TORSDO>
F 4

$$$$
