orig_f12_o3cof_dockpose1
     RDKit          3D

 20 20  0  0  0  0  0  0  0  0999 V2000
    5.7050   -5.7710   -3.1570 C   0  0  0  0  0  0  0  0  0  0  0  0
    4.2550   -5.4810   -2.8590 C   0  0  0  0  0  0  0  0  0  0  0  0
    3.9810   -4.0060   -2.7830 C   0  0  0  0  0  0  0  0  0  0  0  0
    4.2000   -3.3320   -4.0980 C   0  0  0  0  0  0  0  0  0  0  0  0
    5.1270   -2.1370   -4.0260 C   0  0  2  0  0  0  0  0  0  0  0  0
    4.4850   -0.9120   -4.6600 C   0  0  0  0  0  0  0  0  0  0  0  0
    4.6090    0.3680   -3.8550 C   0  0  0  0  0  0  0  0  0  0  0  0
    6.3180   -2.4510   -4.7080 O   0  0  0  0  0  0  0  0  0  0  0  0
    7.4160   -2.6950   -4.0080 C   0  0  0  0  0  0  0  0  0  0  0  0
    8.2980   -3.4290   -4.3990 O   0  0  0  0  0  0  0  0  0  0  0  0
    7.4130   -2.0240   -2.7020 C   0  0  0  0  0  0  0  0  0  0  0  0
    8.0890   -0.8800   -2.5520 C   0  0  0  0  0  0  0  0  0  0  0  0
    8.2330   -0.2100   -1.2480 C   0  0  0  0  0  0  0  0  0  0  0  0
    9.4100   -0.2400   -0.5360 C   0  0  0  0  0  0  0  0  0  0  0  0
    9.5210    0.4330    0.6700 C   0  0  0  0  0  0  0  0  0  0  0  0
    8.4510    1.1260    1.1680 C   0  0  0  0  0  0  0  0  0  0  0  0
    8.5080    1.8210    2.3420 O   0  0  0  0  0  0  0  0  0  0  0  0
    9.5360    1.5360    3.2840 C   0  0  0  0  0  0  0  0  0  0  0  0
    7.2650    1.1640    0.4590 C   0  0  0  0  0  0  0  0  0  0  0  0
    7.1570    0.4810   -0.7460 C   0  0  0  0  0  0  0  0  0  0  0  0
  2  1  1  0
  3  2  1  0
  4  3  1  0
  5  4  1  6
  6  5  1  0
  7  6  1  0
  8  5  1  0
  9  8  1  0
 10  9  2  0
 11  9  1  0
 12 11  2  3
 13 12  1  0
 14 13  1  0
 15 14  2  0
 16 15  1  0
 17 16  1  0
 18 17  1  0
 19 16  2  0
 20 19  1  0
 20 13  2  0
M  END
