s2_esm2_control_ligand
     RDKit          3D

 44 44  0  0  0  0  0  0  0  0999 V2000
   -6.0680   -4.1780    7.1590 C   0  0  0  0  0  0  0  0  0  0  0  0
   -5.9590   -2.6860    7.4530 C   0  0  0  0  0  0  0  0  0  0  0  0
   -5.3980   -1.9430    6.2770 C   0  0  0  0  0  0  0  0  0  0  0  0
   -5.3660   -0.4640    6.5080 C   0  0  0  0  0  0  0  0  0  0  0  0
   -4.7460    0.3200    5.3770 C   0  0  2  0  0  0  0  0  0  0  0  0
   -4.9560    1.8150    5.6070 C   0  0  0  0  0  0  0  0  0  0  0  0
   -3.6710    2.6210    5.6820 C   0  0  0  0  0  0  0  0  0  0  0  0
   -5.3640   -0.0380    4.1530 O   0  0  0  0  0  0  0  0  0  0  0  0
   -4.6420   -0.6730    3.2070 C   0  0  0  0  0  0  0  0  0  0  0  0
   -3.4740   -0.9050    3.3720 O   0  0  0  0  0  0  0  0  0  0  0  0
   -5.3930   -1.0710    1.9890 C   0  0  0  0  0  0  0  0  0  0  0  0
   -4.7310   -1.7510    1.0110 C   0  0  0  0  0  0  0  0  0  0  0  0
   -5.3770   -2.2380   -0.2240 C   0  0  0  0  0  0  0  0  0  0  0  0
   -4.5890   -2.8770   -1.1640 C   0  0  0  0  0  0  0  0  0  0  0  0
   -5.1420   -3.3680   -2.3320 C   0  0  0  0  0  0  0  0  0  0  0  0
   -6.4830   -3.2290   -2.5780 C   0  0  0  0  0  0  0  0  0  0  0  0
   -6.9750   -3.7310   -3.7350 O   0  0  0  0  0  0  0  0  0  0  0  0
   -8.3740   -3.6930   -3.9860 C   0  0  0  0  0  0  0  0  0  0  0  0
   -7.2720   -2.5960   -1.6440 C   0  0  0  0  0  0  0  0  0  0  0  0
   -6.7160   -2.1010   -0.4710 C   0  0  0  0  0  0  0  0  0  0  0  0
   -6.1088   -4.7363    8.1059 H   0  0  0  0  0  0  0  0  0  0  0  0
   -6.9827   -4.3717    6.5795 H   0  0  0  0  0  0  0  0  0  0  0  0
   -5.1912   -4.5025    6.5795 H   0  0  0  0  0  0  0  0  0  0  0  0
   -6.9596   -2.2912    7.6832 H   0  0  0  0  0  0  0  0  0  0  0  0
   -5.2821   -2.5473    8.3089 H   0  0  0  0  0  0  0  0  0  0  0  0
   -4.3726   -2.2952    6.0913 H   0  0  0  0  0  0  0  0  0  0  0  0
   -6.0494   -2.1366    5.4120 H   0  0  0  0  0  0  0  0  0  0  0  0
   -6.3992   -0.1130    6.6467 H   0  0  0  0  0  0  0  0  0  0  0  0
   -4.7385   -0.2936    7.3952 H   0  0  0  0  0  0  0  0  0  0  0  0
   -3.6702    0.0938    5.3374 H   0  0  0  0  0  0  0  0  0  0  0  0
   -5.5625    2.2094    4.7784 H   0  0  0  0  0  0  0  0  0  0  0  0
   -5.4504    1.9176    6.5843 H   0  0  0  0  0  0  0  0  0  0  0  0
   -3.4041    2.7884    6.7359 H   0  0  0  0  0  0  0  0  0  0  0  0
   -2.8618    2.0683    5.1822 H   0  0  0  0  0  0  0  0  0  0  0  0
   -3.8163    3.5901    5.1822 H   0  0  0  0  0  0  0  0  0  0  0  0
   -6.4589   -0.8226    1.8789 H   0  0  0  0  0  0  0  0  0  0  0  0
   -3.6576   -1.9476    1.1492 H   0  0  0  0  0  0  0  0  0  0  0  0
   -3.5110   -2.9958   -0.9803 H   0  0  0  0  0  0  0  0  0  0  0  0
   -4.5011   -3.8738   -3.0691 H   0  0  0  0  0  0  0  0  0  0  0  0
   -8.9178   -3.6782   -3.0299 H   0  0  0  0  0  0  0  0  0  0  0  0
   -8.6189   -2.7879   -4.5611 H   0  0  0  0  0  0  0  0  0  0  0  0
   -8.6677   -4.5835   -4.5611 H   0  0  0  0  0  0  0  0  0  0  0  0
   -8.3504   -2.4814   -1.8279 H   0  0  0  0  0  0  0  0  0  0  0  0
   -7.3574   -1.5947    0.2654 H   0  0  0  0  0  0  0  0  0  0  0  0
  2  1  1  0
  3  2  1  0
  4  3  1  0
  5  4  1  0
  6  5  1  0
  7  6  1  0
  8  5  1  0
  9  8  1  0
 10  9  2  0
 11  9  1  0
 12 11  2  3
 13 12  1  0
 14 13  1  0
 15 14  2  0
 16 15  1  0
 17 16  1  0
 18 17  1  0
 19 16  2  0
 20 19  1  0
 20 13  2  0
  1 21  1  0
  1 22  1  0
  1 23  1  0
  2 24  1  0
  2 25  1  0
  3 26  1  0
  3 27  1  0
  4 28  1  0
  4 29  1  0
  5 30  1  6
  6 31  1  0
  6 32  1  0
  7 33  1  0
  7 34  1  0
  7 35  1  0
 11 36  1  0
 12 37  1  0
 14 38  1  0
 15 39  1  0
 18 40  1  0
 18 41  1  0
 18 42  1  0
 19 43  1  0
 20 44  1  0
M  END
$$$$
