bgox31_5_ligand
     RDKit          3D

 29 30  0  0  0  0  0  0  0  0999 V2000
    4.2495   10.8317   -8.3558 C   0  0  0  0  0  0  0  0  0  0  0  0
    5.0556    9.6215   -8.2829 O   0  0  0  0  0  0  0  0  0  0  0  0
    4.7899    8.6212   -7.2815 C   0  0  0  0  0  0  0  0  0  0  0  0
    5.8125    7.7362   -7.1437 C   0  0  0  0  0  0  0  0  0  0  0  0
    5.7052    6.6990   -6.1928 C   0  0  0  0  0  0  0  0  0  0  0  0
    4.6040    6.5459   -5.3754 C   0  0  0  0  0  0  0  0  0  0  0  0
    4.5715    5.4739   -4.4100 C   0  0  0  0  0  0  0  0  0  0  0  0
    3.8078    5.5707   -3.4409 O   0  0  0  0  0  0  0  0  0  0  0  0
    5.5230    4.3237   -4.5241 C   0  0  0  0  0  0  0  0  0  0  0  0
    6.4017    3.9337   -3.5284 C   0  0  0  0  0  0  0  0  0  0  0  0
    7.2824    2.8315   -3.7061 C   0  0  0  0  0  0  0  0  0  0  0  0
    7.2972    2.0975   -4.8540 C   0  0  0  0  0  0  0  0  0  0  0  0
    6.4222    2.4373   -5.8579 C   0  0  0  0  0  0  0  0  0  0  0  0
    5.5747    3.5571   -5.6861 C   0  0  0  0  0  0  0  0  0  0  0  0
    3.5627    7.4610   -5.5085 C   0  0  0  0  0  0  0  0  0  0  0  0
    2.4598    7.3352   -4.7308 O   0  0  0  0  0  0  0  0  0  0  0  0
    3.6563    8.5114   -6.4623 C   0  0  0  0  0  0  0  0  0  0  0  0
    3.5727   10.8742   -7.4898 H   0  0  0  0  0  0  0  0  0  0  0  0
    4.9086   11.7124   -8.3496 H   0  0  0  0  0  0  0  0  0  0  0  0
    3.6580   10.8229   -9.2833 H   0  0  0  0  0  0  0  0  0  0  0  0
    6.7142    7.8276   -7.7670 H   0  0  0  0  0  0  0  0  0  0  0  0
    6.5343    5.9822   -6.0993 H   0  0  0  0  0  0  0  0  0  0  0  0
    6.4190    4.4885   -2.5787 H   0  0  0  0  0  0  0  0  0  0  0  0
    7.9726    2.5634   -2.8925 H   0  0  0  0  0  0  0  0  0  0  0  0
    7.9925    1.2536   -4.9742 H   0  0  0  0  0  0  0  0  0  0  0  0
    6.3812    1.8455   -6.7842 H   0  0  0  0  0  0  0  0  0  0  0  0
    4.9166    3.8396   -6.5210 H   0  0  0  0  0  0  0  0  0  0  0  0
    1.7153    7.9817   -4.8194 H   0  0  0  0  0  0  0  0  0  0  0  0
    2.8377    9.2398   -6.5581 H   0  0  0  0  0  0  0  0  0  0  0  0
  2  1  1  0
  3  2  1  0
  4  3  1  0
  5  4  2  0
  6  5  1  0
  7  6  1  0
  8  7  2  0
  9  7  1  0
 10  9  2  0
 11 10  1  0
 12 11  2  0
 13 12  1  0
 14 13  2  0
 14  9  1  0
 15  6  2  0
 16 15  1  0
 17 15  1  0
 17  3  2  0
  1 18  1  0
  1 19  1  0
  1 20  1  0
  4 21  1  0
  5 22  1  0
 10 23  1  0
 11 24  1  0
 12 25  1  0
 13 26  1  0
 14 27  1  0
 16 28  1  0
 17 29  1  0
M  END
$$$$
