ox1_esm1_f8_ligand
     RDKit          3D

 29 30  0  0  0  0  0  0  0  0999 V2000
    4.1532   -0.8206    8.9017 C   0  0  0  0  0  0  0  0  0  0  0  0
    3.6212   -0.9642    7.5812 O   0  0  0  0  0  0  0  0  0  0  0  0
    4.2412   -1.7501    6.6543 C   0  0  0  0  0  0  0  0  0  0  0  0
    3.6741   -1.8363    5.3828 C   0  0  0  0  0  0  0  0  0  0  0  0
    4.2624   -2.6301    4.4084 C   0  0  0  0  0  0  0  0  0  0  0  0
    5.4086   -3.3564    4.6813 C   0  0  0  0  0  0  0  0  0  0  0  0
    6.0281   -4.2231    3.6273 C   0  0  0  0  0  0  0  0  0  0  0  0
    7.1310   -4.7238    3.8314 O   0  0  0  0  0  0  0  0  0  0  0  0
    5.3339   -4.4638    2.3273 C   0  0  0  0  0  0  0  0  0  0  0  0
    5.9222   -4.1458    1.1574 C   0  0  0  0  0  0  0  0  0  0  0  0
    5.3557   -4.3728   -0.0838 C   0  0  0  0  0  0  0  0  0  0  0  0
    4.0975   -4.9212   -0.1449 C   0  0  0  0  0  0  0  0  0  0  0  0
    3.4500   -5.2499    1.0376 C   0  0  0  0  0  0  0  0  0  0  0  0
    4.0734   -5.0139    2.2630 C   0  0  0  0  0  0  0  0  0  0  0  0
    5.9933   -3.2697    5.9617 C   0  0  0  0  0  0  0  0  0  0  0  0
    7.1338   -3.9705    6.2273 O   0  0  0  0  0  0  0  0  0  0  0  0
    5.3963   -2.4644    6.9303 C   0  0  0  0  0  0  0  0  0  0  0  0
    4.5080   -1.7973    9.2622 H   0  0  0  0  0  0  0  0  0  0  0  0
    4.9923   -0.1095    8.8836 H   0  0  0  0  0  0  0  0  0  0  0  0
    3.3682   -0.4446    9.5743 H   0  0  0  0  0  0  0  0  0  0  0  0
    2.7577   -1.2733    5.1518 H   0  0  0  0  0  0  0  0  0  0  0  0
    3.8121   -2.6828    3.4062 H   0  0  0  0  0  0  0  0  0  0  0  0
    6.9161   -3.6759    1.1918 H   0  0  0  0  0  0  0  0  0  0  0  0
    5.9021   -4.1192   -1.0043 H   0  0  0  0  0  0  0  0  0  0  0  0
    3.6110   -5.0968   -1.1157 H   0  0  0  0  0  0  0  0  0  0  0  0
    2.4452   -5.6966    1.0089 H   0  0  0  0  0  0  0  0  0  0  0  0
    3.5485   -5.2721    3.1947 H   0  0  0  0  0  0  0  0  0  0  0  0
    7.5511   -3.9157    7.1233 H   0  0  0  0  0  0  0  0  0  0  0  0
    5.8494   -2.3948    7.9302 H   0  0  0  0  0  0  0  0  0  0  0  0
  2  1  1  0
  3  2  1  0
  4  3  1  0
  5  4  2  0
  6  5  1  0
  7  6  1  0
  8  7  2  0
  9  7  1  0
 10  9  2  0
 11 10  1  0
 12 11  2  0
 13 12  1  0
 14 13  2  0
 14  9  1  0
 15  6  2  0
 16 15  1  0
 17 15  1  0
 17  3  2  0
  1 18  1  0
  1 19  1  0
  1 20  1  0
  4 21  1  0
  5 22  1  0
 10 23  1  0
 11 24  1  0
 12 25  1  0
 13 26  1  0
 14 27  1  0
 16 28  1  0
 17 29  1  0
M  END
$$$$
