ox2_shuffle_ligand
     RDKit          3D

 29 30  0  0  0  0  0  0  0  0999 V2000
   -6.6610   -5.1052    2.2367 C   0  0  0  0  0  0  0  0  0  0  0  0
   -5.7753   -6.0016    2.8571 O   0  0  0  0  0  0  0  0  0  0  0  0
   -4.6378   -5.5345    3.4661 C   0  0  0  0  0  0  0  0  0  0  0  0
   -4.0793   -6.3191    4.4630 C   0  0  0  0  0  0  0  0  0  0  0  0
   -2.9399   -5.9089    5.1215 C   0  0  0  0  0  0  0  0  0  0  0  0
   -2.3329   -4.7050    4.7878 C   0  0  0  0  0  0  0  0  0  0  0  0
   -1.0870   -4.2540    5.5036 C   0  0  0  0  0  0  0  0  0  0  0  0
   -0.5867   -3.1893    5.2195 O   0  0  0  0  0  0  0  0  0  0  0  0
   -0.4668   -5.1143    6.5329 C   0  0  0  0  0  0  0  0  0  0  0  0
   -1.0834   -5.3008    7.7646 C   0  0  0  0  0  0  0  0  0  0  0  0
   -0.4802   -6.1005    8.7238 C   0  0  0  0  0  0  0  0  0  0  0  0
    0.7355   -6.7231    8.4494 C   0  0  0  0  0  0  0  0  0  0  0  0
    1.3598   -6.5255    7.2239 C   0  0  0  0  0  0  0  0  0  0  0  0
    0.7643   -5.7064    6.2621 C   0  0  0  0  0  0  0  0  0  0  0  0
   -2.8883   -3.9116    3.7731 C   0  0  0  0  0  0  0  0  0  0  0  0
   -2.2969   -2.7313    3.4371 O   0  0  0  0  0  0  0  0  0  0  0  0
   -4.0406   -4.3360    3.1240 C   0  0  0  0  0  0  0  0  0  0  0  0
   -7.6823   -5.5118    2.2773 H   0  0  0  0  0  0  0  0  0  0  0  0
   -6.6303   -4.1382    2.7600 H   0  0  0  0  0  0  0  0  0  0  0  0
   -6.3641   -4.9637    1.1872 H   0  0  0  0  0  0  0  0  0  0  0  0
   -4.5492   -7.2770    4.7309 H   0  0  0  0  0  0  0  0  0  0  0  0
   -2.5093   -6.5379    5.9148 H   0  0  0  0  0  0  0  0  0  0  0  0
   -2.0473   -4.8153    7.9779 H   0  0  0  0  0  0  0  0  0  0  0  0
   -0.9621   -6.2433    9.7022 H   0  0  0  0  0  0  0  0  0  0  0  0
    1.2021   -7.3726    9.2046 H   0  0  0  0  0  0  0  0  0  0  0  0
    2.3223   -7.0138    7.0113 H   0  0  0  0  0  0  0  0  0  0  0  0
    1.2637   -5.5304    5.2981 H   0  0  0  0  0  0  0  0  0  0  0  0
   -2.6860   -2.1687    2.7215 H   0  0  0  0  0  0  0  0  0  0  0  0
   -4.4814   -3.7134    2.3313 H   0  0  0  0  0  0  0  0  0  0  0  0
  2  1  1  0
  3  2  1  0
  4  3  1  0
  5  4  2  0
  6  5  1  0
  7  6  1  0
  8  7  2  0
  9  7  1  0
 10  9  2  0
 11 10  1  0
 12 11  2  0
 13 12  1  0
 14 13  2  0
 14  9  1  0
 15  6  2  0
 16 15  1  0
 17  3  2  0
 17 15  1  0
  1 18  1  0
  1 19  1  0
  1 20  1  0
  4 21  1  0
  5 22  1  0
 10 23  1  0
 11 24  1  0
 12 25  1  0
 13 26  1  0
 14 27  1  0
 16 28  1  0
 17 29  1  0
M  END
$$$$
