ox2_esm1_f8_ligand
     RDKit          3D

 29 30  0  0  0  0  0  0  0  0999 V2000
   -2.5797    5.8560    4.6953 C   0  0  0  0  0  0  0  0  0  0  0  0
   -3.4596    6.4465    3.7117 O   0  0  0  0  0  0  0  0  0  0  0  0
   -3.9381    5.6752    2.6932 C   0  0  0  0  0  0  0  0  0  0  0  0
   -3.6041    4.3304    2.5521 C   0  0  0  0  0  0  0  0  0  0  0  0
   -4.1097    3.5940    1.4958 C   0  0  0  0  0  0  0  0  0  0  0  0
   -4.9631    4.1829    0.5798 C   0  0  0  0  0  0  0  0  0  0  0  0
   -5.5263    3.3972   -0.5612 C   0  0  0  0  0  0  0  0  0  0  0  0
   -6.0490    3.9776   -1.4887 O   0  0  0  0  0  0  0  0  0  0  0  0
   -5.4474    1.9217   -0.5893 C   0  0  0  0  0  0  0  0  0  0  0  0
   -4.9360    1.2789   -1.7124 C   0  0  0  0  0  0  0  0  0  0  0  0
   -4.8545   -0.1105   -1.7328 C   0  0  0  0  0  0  0  0  0  0  0  0
   -5.3089   -0.8689   -0.6627 C   0  0  0  0  0  0  0  0  0  0  0  0
   -5.8555   -0.2223    0.4349 C   0  0  0  0  0  0  0  0  0  0  0  0
   -5.9222    1.1708    0.4748 C   0  0  0  0  0  0  0  0  0  0  0  0
   -5.3021    5.5368    0.7135 C   0  0  0  0  0  0  0  0  0  0  0  0
   -6.1392    6.1118   -0.2031 O   0  0  0  0  0  0  0  0  0  0  0  0
   -4.7770    6.2706    1.7767 C   0  0  0  0  0  0  0  0  0  0  0  0
   -1.5404    5.9151    4.3398 H   0  0  0  0  0  0  0  0  0  0  0  0
   -2.6737    6.4016    5.6457 H   0  0  0  0  0  0  0  0  0  0  0  0
   -2.8556    4.8024    4.8483 H   0  0  0  0  0  0  0  0  0  0  0  0
   -2.9357    3.8521    3.2832 H   0  0  0  0  0  0  0  0  0  0  0  0
   -3.8320    2.5356    1.3837 H   0  0  0  0  0  0  0  0  0  0  0  0
   -4.5981    1.8655   -2.5794 H   0  0  0  0  0  0  0  0  0  0  0  0
   -4.4234   -0.6151   -2.6102 H   0  0  0  0  0  0  0  0  0  0  0  0
   -5.2365   -1.9662   -0.6854 H   0  0  0  0  0  0  0  0  0  0  0  0
   -6.2393   -0.8117    1.2807 H   0  0  0  0  0  0  0  0  0  0  0  0
   -6.3527    1.6745    1.3529 H   0  0  0  0  0  0  0  0  0  0  0  0
   -6.3850    7.0670   -0.1182 H   0  0  0  0  0  0  0  0  0  0  0  0
   -5.0350    7.3346    1.8847 H   0  0  0  0  0  0  0  0  0  0  0  0
  2  1  1  0
  3  2  1  0
  4  3  1  0
  5  4  2  0
  6  5  1  0
  7  6  1  0
  8  7  2  0
  9  7  1  0
 10  9  2  0
 11 10  1  0
 12 11  2  0
 13 12  1  0
 14 13  2  0
 14  9  1  0
 15  6  2  0
 16 15  1  0
 17 15  1  0
 17  3  2  0
  1 18  1  0
  1 19  1  0
  1 20  1  0
  4 21  1  0
  5 22  1  0
 10 23  1  0
 11 24  1  0
 12 25  1  0
 13 26  1  0
 14 27  1  0
 16 28  1  0
 17 29  1  0
M  END
$$$$
