ox3_orig_f8_ligand
     RDKit          3D

 29 30  0  0  0  0  0  0  0  0999 V2000
   10.1507  -12.8905    8.9653 C   0  0  0  0  0  0  0  0  0  0  0  0
    9.6429  -12.4475    7.7066 O   0  0  0  0  0  0  0  0  0  0  0  0
    9.0781  -11.2008    7.5894 C   0  0  0  0  0  0  0  0  0  0  0  0
    8.8803  -10.3635    8.6888 C   0  0  0  0  0  0  0  0  0  0  0  0
    8.3031   -9.1156    8.5149 C   0  0  0  0  0  0  0  0  0  0  0  0
    7.9134   -8.6892    7.2489 C   0  0  0  0  0  0  0  0  0  0  0  0
    7.2955   -7.3349    7.0439 C   0  0  0  0  0  0  0  0  0  0  0  0
    7.0738   -6.9735    5.9126 O   0  0  0  0  0  0  0  0  0  0  0  0
    6.9856   -6.4202    8.1704 C   0  0  0  0  0  0  0  0  0  0  0  0
    6.2847   -6.8558    9.2864 C   0  0  0  0  0  0  0  0  0  0  0  0
    5.9799   -5.9706   10.3039 C   0  0  0  0  0  0  0  0  0  0  0  0
    6.4081   -4.6588   10.2536 C   0  0  0  0  0  0  0  0  0  0  0  0
    7.0943   -4.2109    9.1377 C   0  0  0  0  0  0  0  0  0  0  0  0
    7.3683   -5.0819    8.0824 C   0  0  0  0  0  0  0  0  0  0  0  0
    8.1251   -9.5297    6.1564 C   0  0  0  0  0  0  0  0  0  0  0  0
    7.7690   -9.1106    4.9091 O   0  0  0  0  0  0  0  0  0  0  0  0
    8.7071  -10.7781    6.3385 C   0  0  0  0  0  0  0  0  0  0  0  0
   10.8550  -12.1434    9.3600 H   0  0  0  0  0  0  0  0  0  0  0  0
    9.3175  -13.0185    9.6723 H   0  0  0  0  0  0  0  0  0  0  0  0
   10.6705  -13.8509    8.8336 H   0  0  0  0  0  0  0  0  0  0  0  0
    9.1826  -10.6943    9.6935 H   0  0  0  0  0  0  0  0  0  0  0  0
    8.1519   -8.4578    9.3835 H   0  0  0  0  0  0  0  0  0  0  0  0
    5.9710   -7.9075    9.3616 H   0  0  0  0  0  0  0  0  0  0  0  0
    5.3885   -6.3158   11.1646 H   0  0  0  0  0  0  0  0  0  0  0  0
    6.2059   -3.9762   11.0922 H   0  0  0  0  0  0  0  0  0  0  0  0
    7.4253   -3.1633    9.0826 H   0  0  0  0  0  0  0  0  0  0  0  0
    7.8850   -4.7140    7.1836 H   0  0  0  0  0  0  0  0  0  0  0  0
    7.9157   -9.7008    4.1280 H   0  0  0  0  0  0  0  0  0  0  0  0
    8.8720  -11.4340    5.4709 H   0  0  0  0  0  0  0  0  0  0  0  0
  2  1  1  0
  3  2  1  0
  4  3  1  0
  5  4  2  0
  6  5  1  0
  7  6  1  0
  8  7  2  0
  9  7  1  0
 10  9  2  0
 11 10  1  0
 12 11  2  0
 13 12  1  0
 14 13  2  0
 14  9  1  0
 15  6  2  0
 16 15  1  0
 17 15  1  0
 17  3  2  0
  1 18  1  0
  1 19  1  0
  1 20  1  0
  4 21  1  0
  5 22  1  0
 10 23  1  0
 11 24  1  0
 12 25  1  0
 13 26  1  0
 14 27  1  0
 16 28  1  0
 17 29  1  0
M  END
$$$$
