ox2_orig_f8_ligand
     RDKit          3D

 29 30  0  0  0  0  0  0  0  0999 V2000
    1.3130   -2.8750    2.4570 C   0  0  0  0  0  0  0  0  0  0  0  0
    1.4570   -1.5830    1.9430 O   0  0  0  0  0  0  0  0  0  0  0  0
    0.9210   -1.2730    0.7320 C   0  0  0  0  0  0  0  0  0  0  0  0
    1.0840    0.0220    0.2860 C   0  0  0  0  0  0  0  0  0  0  0  0
    0.5720    0.4090   -0.9310 C   0  0  0  0  0  0  0  0  0  0  0  0
   -0.0950   -0.5000   -1.7160 C   0  0  0  0  0  0  0  0  0  0  0  0
   -0.6330   -0.0610   -3.0080 C   0  0  0  0  0  0  0  0  0  0  0  0
   -1.6660   -0.3880   -3.2440 O   0  0  0  0  0  0  0  0  0  0  0  0
   -0.0710    0.8640   -3.9600 C   0  0  0  0  0  0  0  0  0  0  0  0
    1.2780    0.8930   -4.1800 C   0  0  0  0  0  0  0  0  0  0  0  0
    1.8150    1.7690   -5.0970 C   0  0  0  0  0  0  0  0  0  0  0  0
    1.0020    2.6350   -5.7890 C   0  0  0  0  0  0  0  0  0  0  0  0
   -0.3610    2.5950   -5.5860 C   0  0  0  0  0  0  0  0  0  0  0  0
   -0.9090    1.7010   -4.6780 C   0  0  0  0  0  0  0  0  0  0  0  0
   -0.2790   -1.8060   -1.2670 C   0  0  0  0  0  0  0  0  0  0  0  0
   -0.9560   -2.6860   -2.0220 O   0  0  0  0  0  0  0  0  0  0  0  0
    0.2350   -2.1800   -0.0460 C   0  0  0  0  0  0  0  0  0  0  0  0
    1.3175   -2.8349    3.5563 H   0  0  0  0  0  0  0  0  0  0  0  0
    0.3615   -3.3039    2.1096 H   0  0  0  0  0  0  0  0  0  0  0  0
    2.1467   -3.5029    2.1096 H   0  0  0  0  0  0  0  0  0  0  0  0
    1.6267    0.7498    0.9071 H   0  0  0  0  0  0  0  0  0  0  0  0
    0.6967    1.4462   -1.2754 H   0  0  0  0  0  0  0  0  0  0  0  0
    1.9381    0.2130   -3.6216 H   0  0  0  0  0  0  0  0  0  0  0  0
    2.9002    1.7758   -5.2767 H   0  0  0  0  0  0  0  0  0  0  0  0
    1.4357    3.3544   -6.4993 H   0  0  0  0  0  0  0  0  0  0  0  0
   -1.0177    3.2759   -6.1473 H   0  0  0  0  0  0  0  0  0  0  0  0
   -1.9981    1.6572   -4.5297 H   0  0  0  0  0  0  0  0  0  0  0  0
   -1.0869   -3.6141   -1.7032 H   0  0  0  0  0  0  0  0  0  0  0  0
    0.0970   -3.2111    0.3114 H   0  0  0  0  0  0  0  0  0  0  0  0
  2  1  1  0
  3  2  1  0
  4  3  1  0
  5  4  2  0
  6  5  1  0
  7  6  1  0
  8  7  2  0
  9  7  1  0
 10  9  2  0
 11 10  1  0
 12 11  2  0
 13 12  1  0
 14 13  2  0
 14  9  1  0
 15  6  2  0
 16 15  1  0
 17 15  1  0
 17  3  2  0
  1 18  1  0
  1 19  1  0
  1 20  1  0
  4 21  1  0
  5 22  1  0
 10 23  1  0
 11 24  1  0
 12 25  1  0
 13 26  1  0
 14 27  1  0
 16 28  1  0
 17 29  1  0
M  END
$$$$
