ox1_orig_f12_ligand
     RDKit          3D

 29 30  0  0  0  0  0  0  0  0999 V2000
   -0.8026   -3.0912   -6.3625 C   0  0  0  0  0  0  0  0  0  0  0  0
   -1.9322   -3.4360   -5.5939 O   0  0  0  0  0  0  0  0  0  0  0  0
   -2.4414   -2.5413   -4.6910 C   0  0  0  0  0  0  0  0  0  0  0  0
   -3.5990   -2.8924   -4.0046 C   0  0  0  0  0  0  0  0  0  0  0  0
   -4.1469   -2.0161   -3.0783 C   0  0  0  0  0  0  0  0  0  0  0  0
   -3.5421   -0.7893   -2.8187 C   0  0  0  0  0  0  0  0  0  0  0  0
   -4.1203    0.1784   -1.8209 C   0  0  0  0  0  0  0  0  0  0  0  0
   -3.6151    1.2787   -1.7378 O   0  0  0  0  0  0  0  0  0  0  0  0
   -5.2919   -0.1364   -0.9716 C   0  0  0  0  0  0  0  0  0  0  0  0
   -5.4198   -1.3612   -0.3289 C   0  0  0  0  0  0  0  0  0  0  0  0
   -6.5217   -1.6335    0.4497 C   0  0  0  0  0  0  0  0  0  0  0  0
   -7.5182   -0.6823    0.6017 C   0  0  0  0  0  0  0  0  0  0  0  0
   -7.3970    0.5536   -0.0187 C   0  0  0  0  0  0  0  0  0  0  0  0
   -6.2765    0.8451   -0.7924 C   0  0  0  0  0  0  0  0  0  0  0  0
   -2.3885   -0.4414   -3.5132 C   0  0  0  0  0  0  0  0  0  0  0  0
   -1.8109    0.7611   -3.2664 O   0  0  0  0  0  0  0  0  0  0  0  0
   -1.8498   -1.3146   -4.4443 C   0  0  0  0  0  0  0  0  0  0  0  0
    0.0765   -3.0102   -5.7063 H   0  0  0  0  0  0  0  0  0  0  0  0
   -0.6239   -3.8680   -7.1206 H   0  0  0  0  0  0  0  0  0  0  0  0
   -0.9785   -2.1263   -6.8605 H   0  0  0  0  0  0  0  0  0  0  0  0
   -4.0796   -3.8632   -4.1957 H   0  0  0  0  0  0  0  0  0  0  0  0
   -5.0677   -2.2936   -2.5442 H   0  0  0  0  0  0  0  0  0  0  0  0
   -4.6327   -2.1211   -0.4434 H   0  0  0  0  0  0  0  0  0  0  0  0
   -6.6117   -2.6078    0.9523 H   0  0  0  0  0  0  0  0  0  0  0  0
   -8.4045   -0.9066    1.2134 H   0  0  0  0  0  0  0  0  0  0  0  0
   -8.1899    1.3064    0.1016 H   0  0  0  0  0  0  0  0  0  0  0  0
   -6.1652    1.8354   -1.2582 H   0  0  0  0  0  0  0  0  0  0  0  0
   -0.9894    1.0246   -3.7519 H   0  0  0  0  0  0  0  0  0  0  0  0
   -0.9408   -1.0293   -4.9943 H   0  0  0  0  0  0  0  0  0  0  0  0
  2  1  1  0
  3  2  1  0
  4  3  1  0
  5  4  2  0
  6  5  1  0
  7  6  1  0
  8  7  2  0
  9  7  1  0
 10  9  2  0
 11 10  1  0
 12 11  2  0
 13 12  1  0
 14 13  2  0
 14  9  1  0
 15  6  2  0
 16 15  1  0
 17 15  1  0
 17  3  2  0
  1 18  1  0
  1 19  1  0
  1 20  1  0
  4 21  1  0
  5 22  1  0
 10 23  1  0
 11 24  1  0
 12 25  1  0
 13 26  1  0
 14 27  1  0
 16 28  1  0
 17 29  1  0
M  END
$$$$
