ox1_orig_f12_ligand
 OpenBabel10092621193D

 18 19  0  0  0  0  0  0  0  0999 V2000
   -2.5930   -2.6900   -4.1510 C   0  0  0  0  0  0  0  0  0  0  0  0
   -3.7950   -2.0390   -4.4150 C   0  0  0  0  0  3  0  0  0  0  0  0
   -4.2660   -1.0730   -3.5370 C   0  0  0  0  0  3  0  0  0  0  0  0
   -3.5510   -0.7530   -2.3850 C   0  0  0  0  0  0  0  0  0  0  0  0
   -2.3480   -1.4010   -2.1310 C   0  0  0  0  0  0  0  0  0  0  0  0
   -1.8770   -2.3590   -3.0150 C   0  0  0  0  0  3  0  0  0  0  0  0
   -1.1640   -3.3210   -5.9780 C   0  0  0  0  0  1  0  0  0  0  0  0
   -2.1670   -3.6390   -5.0420 O   0  0  0  0  0  0  0  0  0  0  0  0
   -4.0400    0.2930   -1.4210 C   0  0  0  0  0  0  0  0  0  0  0  0
   -3.5420    1.3990   -1.4800 O   0  0  0  0  0  0  0  0  0  0  0  0
   -5.1210    0.0490   -0.4380 C   0  0  0  0  0  0  0  0  0  0  0  0
   -6.3600    0.6690   -0.5470 C   0  0  0  0  0  3  0  0  0  0  0  0
   -7.3480    0.4320    0.3820 C   0  0  0  0  0  3  0  0  0  0  0  0
   -7.1150   -0.4330    1.4390 C   0  0  0  0  0  3  0  0  0  0  0  0
   -5.8890   -1.0740    1.5530 C   0  0  0  0  0  3  0  0  0  0  0  0
   -4.8910   -0.8560    0.6070 C   0  0  0  0  0  3  0  0  0  0  0  0
   -1.6490   -1.0770   -1.0150 O   0  0  0  0  0  0  0  0  0  0  0  0
   -1.0900   -1.7590   -0.5640 H   0  0  0  0  0  0  0  0  0  0  0  0
  1  6  1  0  0  0  0
  2  1  2  0  0  0  0
  2  3  1  0  0  0  0
  3  4  2  0  0  0  0
  4  5  1  0  0  0  0
  4  9  1  0  0  0  0
  5 17  1  0  0  0  0
  6  5  2  0  0  0  0
  7  8  1  0  0  0  0
  8  1  1  0  0  0  0
  9 11  1  0  0  0  0
 10  9  2  0  0  0  0
 11 16  1  0  0  0  0
 12 11  2  0  0  0  0
 12 13  1  0  0  0  0
 13 14  2  0  0  0  0
 14 15  1  0  0  0  0
 16 15  2  0  0  0  0
 17 18  1  0  0  0  0
M  END
>  <MODEL>
1

>  <REMARK>
 VINA RESULT:      -5.7      0.000      0.000
  Name = ox1_orig_f12_ligand
  5 active torsions:
  status: ('A' for Active; 'I' for Inactive)
    1  A    between atoms: C_1  and  O_2
    2  A    between atoms: O_2  and  C_3
    3  A    between atoms: C_6  and  C_7
    4  A    between atoms: C_7  and  C_9
    5  A    between atoms: C_15  and  O_16
                            x       y       z     vdW  Elec       q    Type
                         _______ _______ _______ _____ _____    ______ ____

>  <TORSDO>
F 4

$$$$
ox1_orig_f12_ligand
 OpenBabel10092621193D

 18 19  0  0  0  0  0  0  0  0999 V2000
   -0.5210   -3.2980   -6.9790 C   0  0  0  0  0  0  0  0  0  0  0  0
   -1.5980   -3.8450   -6.2900 C   0  0  0  0  0  3  0  0  0  0  0  0
   -1.9240   -3.3730   -5.0260 C   0  0  0  0  0  3  0  0  0  0  0  0
   -1.1740   -2.3590   -4.4340 C   0  0  0  0  0  0  0  0  0  0  0  0
   -0.1040   -1.8120   -5.1310 C   0  0  0  0  0  0  0  0  0  0  0  0
    0.2130   -2.2810   -6.3960 C   0  0  0  0  0  3  0  0  0  0  0  0
    1.0120   -3.5140   -8.8180 C   0  0  0  0  0  1  0  0  0  0  0  0
   -0.2330   -3.7960   -8.2220 O   0  0  0  0  0  0  0  0  0  0  0  0
   -1.5110   -1.8290   -3.0660 C   0  0  0  0  0  0  0  0  0  0  0  0
   -0.6460   -1.8630   -2.2150 O   0  0  0  0  0  0  0  0  0  0  0  0
   -2.8240   -1.2350   -2.7270 C   0  0  0  0  0  0  0  0  0  0  0  0
   -3.7240   -0.8440   -3.7100 C   0  0  0  0  0  3  0  0  0  0  0  0
   -4.9370   -0.2880   -3.3710 C   0  0  0  0  0  3  0  0  0  0  0  0
   -5.2730   -0.1130   -2.0380 C   0  0  0  0  0  3  0  0  0  0  0  0
   -4.3930   -0.5150   -1.0430 C   0  0  0  0  0  3  0  0  0  0  0  0
   -3.1730   -1.0970   -1.3760 C   0  0  0  0  0  3  0  0  0  0  0  0
    0.6150   -0.8160   -4.5540 O   0  0  0  0  0  0  0  0  0  0  0  0
    0.6130   -0.7100   -3.5690 H   0  0  0  0  0  0  0  0  0  0  0  0
  1  6  2  0  0  0  0
  1  2  1  0  0  0  0
  2  3  2  0  0  0  0
  3  4  1  0  0  0  0
  4  9  1  0  0  0  0
  5 17  1  0  0  0  0
  5  4  2  0  0  0  0
  6  5  1  0  0  0  0
  7  8  1  0  0  0  0
  8  1  1  0  0  0  0
  9 11  1  0  0  0  0
  9 10  2  0  0  0  0
 11 16  1  0  0  0  0
 12 13  1  0  0  0  0
 12 11  2  0  0  0  0
 13 14  2  0  0  0  0
 14 15  1  0  0  0  0
 16 15  2  0  0  0  0
 17 18  1  0  0  0  0
M  END
>  <MODEL>
2

>  <REMARK>
 VINA RESULT:      -5.4      2.237      3.765
  Name = ox1_orig_f12_ligand
  5 active torsions:
  status: ('A' for Active; 'I' for Inactive)
    1  A    between atoms: C_1  and  O_2
    2  A    between atoms: O_2  and  C_3
    3  A    between atoms: C_6  and  C_7
    4  A    between atoms: C_7  and  C_9
    5  A    between atoms: C_15  and  O_16
                            x       y       z     vdW  Elec       q    Type
                         _______ _______ _______ _____ _____    ______ ____

>  <TORSDO>
F 4

$$$$
ox1_orig_f12_ligand
 OpenBabel10092621193D

 18 19  0  0  0  0  0  0  0  0999 V2000
   -2.4330   -2.3370   -3.8560 C   0  0  0  0  0  0  0  0  0  0  0  0
   -1.9390   -2.2060   -2.5620 C   0  0  0  0  0  3  0  0  0  0  0  0
   -2.4950   -1.2710   -1.7000 C   0  0  0  0  0  3  0  0  0  0  0  0
   -3.5390   -0.4520   -2.1220 C   0  0  0  0  0  0  0  0  0  0  0  0
   -4.0330   -0.5930   -3.4130 C   0  0  0  0  0  0  0  0  0  0  0  0
   -3.4810   -1.5340   -4.2680 C   0  0  0  0  0  3  0  0  0  0  0  0
   -2.6620   -4.1800   -5.3830 C   0  0  0  0  0  1  0  0  0  0  0  0
   -1.8530   -3.2700   -4.6740 O   0  0  0  0  0  0  0  0  0  0  0  0
   -4.1600    0.5660   -1.2040 C   0  0  0  0  0  0  0  0  0  0  0  0
   -3.7960    1.7200   -1.3060 O   0  0  0  0  0  0  0  0  0  0  0  0
   -5.2140    0.2350   -0.2180 C   0  0  0  0  0  0  0  0  0  0  0  0
   -4.9620   -0.5910    0.8700 C   0  0  0  0  0  3  0  0  0  0  0  0
   -5.9600   -0.8910    1.7700 C   0  0  0  0  0  3  0  0  0  0  0  0
   -7.2310   -0.3680    1.5980 C   0  0  0  0  0  3  0  0  0  0  0  0
   -7.4960    0.4730    0.5250 C   0  0  0  0  0  3  0  0  0  0  0  0
   -6.4880    0.7980   -0.3780 C   0  0  0  0  0  3  0  0  0  0  0  0
   -5.0590    0.1990   -3.8140 O   0  0  0  0  0  0  0  0  0  0  0  0
   -5.0140    0.6640   -4.6880 H   0  0  0  0  0  0  0  0  0  0  0  0
  1  2  1  0  0  0  0
  2  3  2  0  0  0  0
  4  3  1  0  0  0  0
  4  9  1  0  0  0  0
  5  4  2  0  0  0  0
  6  1  2  0  0  0  0
  6  5  1  0  0  0  0
  7  8  1  0  0  0  0
  8  1  1  0  0  0  0
  9 11  1  0  0  0  0
 10  9  2  0  0  0  0
 11 12  1  0  0  0  0
 12 13  2  0  0  0  0
 14 13  1  0  0  0  0
 15 14  2  0  0  0  0
 16 11  2  0  0  0  0
 16 15  1  0  0  0  0
 17  5  1  0  0  0  0
 18 17  1  0  0  0  0
M  END
>  <MODEL>
3

>  <REMARK>
 VINA RESULT:      -5.3      1.045      2.065
  Name = ox1_orig_f12_ligand
  5 active torsions:
  status: ('A' for Active; 'I' for Inactive)
    1  A    between atoms: C_1  and  O_2
    2  A    between atoms: O_2  and  C_3
    3  A    between atoms: C_6  and  C_7
    4  A    between atoms: C_7  and  C_9
    5  A    between atoms: C_15  and  O_16
                            x       y       z     vdW  Elec       q    Type
                         _______ _______ _______ _____ _____    ______ ____

>  <TORSDO>
F 4

$$$$
ox1_orig_f12_ligand
 OpenBabel10092621193D

 18 19  0  0  0  0  0  0  0  0999 V2000
   -7.2530   -0.2340    1.2770 C   0  0  0  0  0  0  0  0  0  0  0  0
   -7.2760   -0.8470    0.0300 C   0  0  0  0  0  3  0  0  0  0  0  0
   -6.2520   -0.6130   -0.8770 C   0  0  0  0  0  3  0  0  0  0  0  0
   -5.2010    0.2420   -0.5530 C   0  0  0  0  0  0  0  0  0  0  0  0
   -5.1800    0.8470    0.6980 C   0  0  0  0  0  0  0  0  0  0  0  0
   -6.2000    0.6030    1.6030 C   0  0  0  0  0  3  0  0  0  0  0  0
   -9.1180   -1.6040    1.9240 C   0  0  0  0  0  1  0  0  0  0  0  0
   -8.2850   -0.4900    2.1400 O   0  0  0  0  0  0  0  0  0  0  0  0
   -4.0780    0.5090   -1.5190 C   0  0  0  0  0  0  0  0  0  0  0  0
   -3.6830    1.6520   -1.6290 O   0  0  0  0  0  0  0  0  0  0  0  0
   -3.4130   -0.5560   -2.3040 C   0  0  0  0  0  0  0  0  0  0  0  0
   -3.7590   -0.8130   -3.6250 C   0  0  0  0  0  3  0  0  0  0  0  0
   -3.1310   -1.8130   -4.3320 C   0  0  0  0  0  3  0  0  0  0  0  0
   -2.1420   -2.5750   -3.7310 C   0  0  0  0  0  3  0  0  0  0  0  0
   -1.7710   -2.3190   -2.4180 C   0  0  0  0  0  3  0  0  0  0  0  0
   -2.3860   -1.2970   -1.7010 C   0  0  0  0  0  3  0  0  0  0  0  0
   -4.1480    1.6690    1.0130 O   0  0  0  0  0  0  0  0  0  0  0  0
   -4.3070    2.4770    1.5640 H   0  0  0  0  0  0  0  0  0  0  0  0
  1  6  1  0  0  0  0
  1  8  1  0  0  0  0
  2  1  2  0  0  0  0
  3  4  2  0  0  0  0
  3  2  1  0  0  0  0
  4  5  1  0  0  0  0
  5 17  1  0  0  0  0
  5  6  2  0  0  0  0
  7  8  1  0  0  0  0
  9  4  1  0  0  0  0
 10  9  2  0  0  0  0
 11 16  1  0  0  0  0
 11  9  1  0  0  0  0
 12 11  2  0  0  0  0
 13 14  2  0  0  0  0
 13 12  1  0  0  0  0
 14 15  1  0  0  0  0
 15 16  2  0  0  0  0
 17 18  1  0  0  0  0
M  END
>  <MODEL>
4

>  <REMARK>
 VINA RESULT:      -5.3      2.039      5.924
  Name = ox1_orig_f12_ligand
  5 active torsions:
  status: ('A' for Active; 'I' for Inactive)
    1  A    between atoms: C_1  and  O_2
    2  A    between atoms: O_2  and  C_3
    3  A    between atoms: C_6  and  C_7
    4  A    between atoms: C_7  and  C_9
    5  A    between atoms: C_15  and  O_16
                            x       y       z     vdW  Elec       q    Type
                         _______ _______ _______ _____ _____    ______ ____

>  <TORSDO>
F 4

$$$$
ox1_orig_f12_ligand
 OpenBabel10092621193D

 18 19  0  0  0  0  0  0  0  0999 V2000
   -5.0120    0.7260    2.0590 C   0  0  0  0  0  0  0  0  0  0  0  0
   -5.2760   -0.5970    1.7190 C   0  0  0  0  0  3  0  0  0  0  0  0
   -5.2380   -0.9910    0.3880 C   0  0  0  0  0  3  0  0  0  0  0  0
   -4.9460   -0.0700   -0.6150 C   0  0  0  0  0  0  0  0  0  0  0  0
   -4.6760    1.2480   -0.2680 C   0  0  0  0  0  0  0  0  0  0  0  0
   -4.7070    1.6360    1.0620 C   0  0  0  0  0  3  0  0  0  0  0  0
   -5.4350    2.3800    3.7500 C   0  0  0  0  0  1  0  0  0  0  0  0
   -5.0640    1.0720    3.3830 O   0  0  0  0  0  0  0  0  0  0  0  0
   -4.8950   -0.4750   -2.0640 C   0  0  0  0  0  0  0  0  0  0  0  0
   -5.8200   -0.1470   -2.7780 O   0  0  0  0  0  0  0  0  0  0  0  0
   -3.7590   -1.2140   -2.6600 C   0  0  0  0  0  0  0  0  0  0  0  0
   -2.5600   -1.3820   -1.9790 C   0  0  0  0  0  3  0  0  0  0  0  0
   -1.5150   -2.0670   -2.5570 C   0  0  0  0  0  3  0  0  0  0  0  0
   -1.6510   -2.6000   -3.8290 C   0  0  0  0  0  3  0  0  0  0  0  0
   -2.8490   -2.4570   -4.5160 C   0  0  0  0  0  3  0  0  0  0  0  0
   -3.9170   -1.7830   -3.9320 C   0  0  0  0  0  3  0  0  0  0  0  0
   -4.3800    2.1380   -1.2480 O   0  0  0  0  0  0  0  0  0  0  0  0
   -3.5910    1.9910   -1.8290 H   0  0  0  0  0  0  0  0  0  0  0  0
  1  8  1  0  0  0  0
  2  1  1  0  0  0  0
  3  2  2  0  0  0  0
  4  5  2  0  0  0  0
  4  3  1  0  0  0  0
  5  6  1  0  0  0  0
  6  1  2  0  0  0  0
  8  7  1  0  0  0  0
  9  4  1  0  0  0  0
 10  9  2  0  0  0  0
 11  9  1  0  0  0  0
 11 12  1  0  0  0  0
 13 12  2  0  0  0  0
 14 13  1  0  0  0  0
 15 16  1  0  0  0  0
 15 14  2  0  0  0  0
 16 11  2  0  0  0  0
 17  5  1  0  0  0  0
 18 17  1  0  0  0  0
M  END
>  <MODEL>
5

>  <REMARK>
 VINA RESULT:      -5.3      2.063      6.244
  Name = ox1_orig_f12_ligand
  5 active torsions:
  status: ('A' for Active; 'I' for Inactive)
    1  A    between atoms: C_1  and  O_2
    2  A    between atoms: O_2  and  C_3
    3  A    between atoms: C_6  and  C_7
    4  A    between atoms: C_7  and  C_9
    5  A    between atoms: C_15  and  O_16
                            x       y       z     vdW  Elec       q    Type
                         _______ _______ _______ _____ _____    ______ ____

>  <TORSDO>
F 4

$$$$
ox1_orig_f12_ligand
 OpenBabel10092621193D

 18 19  0  0  0  0  0  0  0  0999 V2000
   -3.4060   -1.0400   -2.5210 C   0  0  0  0  0  0  0  0  0  0  0  0
   -2.2340   -1.7320   -2.2340 C   0  0  0  0  0  3  0  0  0  0  0  0
   -1.5660   -2.4110   -3.2440 C   0  0  0  0  0  3  0  0  0  0  0  0
   -2.0630   -2.4140   -4.5450 C   0  0  0  0  0  0  0  0  0  0  0  0
   -3.2310   -1.7140   -4.8260 C   0  0  0  0  0  0  0  0  0  0  0  0
   -3.8900   -1.0310   -3.8160 C   0  0  0  0  0  3  0  0  0  0  0  0
   -3.8670    1.0020   -1.3400 C   0  0  0  0  0  1  0  0  0  0  0  0
   -4.0350   -0.3880   -1.4940 O   0  0  0  0  0  0  0  0  0  0  0  0
   -1.3540   -3.1390   -5.6570 C   0  0  0  0  0  0  0  0  0  0  0  0
   -1.8050   -4.2070   -6.0170 O   0  0  0  0  0  0  0  0  0  0  0  0
   -0.1650   -2.5940   -6.3520 C   0  0  0  0  0  0  0  0  0  0  0  0
    0.4200   -3.2570   -7.4240 C   0  0  0  0  0  3  0  0  0  0  0  0
    1.5290   -2.7340   -8.0510 C   0  0  0  0  0  3  0  0  0  0  0  0
    2.0730   -1.5360   -7.6170 C   0  0  0  0  0  3  0  0  0  0  0  0
    1.4890   -0.8530   -6.5590 C   0  0  0  0  0  3  0  0  0  0  0  0
    0.3570   -1.3630   -5.9330 C   0  0  0  0  0  3  0  0  0  0  0  0
   -3.7040   -1.7100   -6.0970 O   0  0  0  0  0  0  0  0  0  0  0  0
   -4.1780   -0.9130   -6.4470 H   0  0  0  0  0  0  0  0  0  0  0  0
  1  2  1  0  0  0  0
  1  8  1  0  0  0  0
  3  2  2  0  0  0  0
  4  3  1  0  0  0  0
  5  4  2  0  0  0  0
  5  6  1  0  0  0  0
  6  1  2  0  0  0  0
  8  7  1  0  0  0  0
  9  4  1  0  0  0  0
 10  9  2  0  0  0  0
 11 16  1  0  0  0  0
 11  9  1  0  0  0  0
 12 11  2  0  0  0  0
 13 14  2  0  0  0  0
 13 12  1  0  0  0  0
 14 15  1  0  0  0  0
 15 16  2  0  0  0  0
 17  5  1  0  0  0  0
 18 17  1  0  0  0  0
M  END
>  <MODEL>
6

>  <REMARK>
 VINA RESULT:      -5.2      2.232      7.424
  Name = ox1_orig_f12_ligand
  5 active torsions:
  status: ('A' for Active; 'I' for Inactive)
    1  A    between atoms: C_1  and  O_2
    2  A    between atoms: O_2  and  C_3
    3  A    between atoms: C_6  and  C_7
    4  A    between atoms: C_7  and  C_9
    5  A    between atoms: C_15  and  O_16
                            x       y       z     vdW  Elec       q    Type
                         _______ _______ _______ _____ _____    ______ ____

>  <TORSDO>
F 4

$$$$
ox1_orig_f12_ligand
 OpenBabel10092621193D

 18 19  0  0  0  0  0  0  0  0999 V2000
   -6.9250   -0.8180    1.6590 C   0  0  0  0  0  0  0  0  0  0  0  0
   -5.5870   -1.1630    1.8190 C   0  0  0  0  0  3  0  0  0  0  0  0
   -4.6650   -0.8340    0.8340 C   0  0  0  0  0  3  0  0  0  0  0  0
   -5.0680   -0.1700   -0.3210 C   0  0  0  0  0  0  0  0  0  0  0  0
   -6.4060    0.1780   -0.4720 C   0  0  0  0  0  0  0  0  0  0  0  0
   -7.3210   -0.1440    0.5180 C   0  0  0  0  0  3  0  0  0  0  0  0
   -8.7290   -0.2180    3.1290 C   0  0  0  0  0  1  0  0  0  0  0  0
   -7.8010   -1.1640    2.6530 O   0  0  0  0  0  0  0  0  0  0  0  0
   -4.0860    0.1990   -1.4000 C   0  0  0  0  0  0  0  0  0  0  0  0
   -3.7830    1.3690   -1.5170 O   0  0  0  0  0  0  0  0  0  0  0  0
   -3.4490   -0.7960   -2.2920 C   0  0  0  0  0  0  0  0  0  0  0  0
   -3.9850   -1.1130   -3.5340 C   0  0  0  0  0  3  0  0  0  0  0  0
   -3.3780   -2.0460   -4.3440 C   0  0  0  0  0  3  0  0  0  0  0  0
   -2.2200   -2.6820   -3.9250 C   0  0  0  0  0  3  0  0  0  0  0  0
   -1.6610   -2.3640   -2.6950 C   0  0  0  0  0  3  0  0  0  0  0  0
   -2.2570   -1.4070   -1.8790 C   0  0  0  0  0  3  0  0  0  0  0  0
   -6.7910    0.8360   -1.5930 O   0  0  0  0  0  0  0  0  0  0  0  0
   -7.2310    1.7220   -1.5220 H   0  0  0  0  0  0  0  0  0  0  0  0
  1  2  1  0  0  0  0
  1  8  1  0  0  0  0
  3  2  2  0  0  0  0
  4  3  1  0  0  0  0
  5  4  2  0  0  0  0
  5  6  1  0  0  0  0
  6  1  2  0  0  0  0
  8  7  1  0  0  0  0
  9  4  1  0  0  0  0
 10  9  2  0  0  0  0
 11 16  1  0  0  0  0
 11  9  1  0  0  0  0
 12 11  2  0  0  0  0
 13 14  2  0  0  0  0
 13 12  1  0  0  0  0
 14 15  1  0  0  0  0
 15 16  2  0  0  0  0
 17 18  1  0  0  0  0
 17  5  1  0  0  0  0
M  END
>  <MODEL>
7

>  <REMARK>
 VINA RESULT:      -5.1      1.881      6.178
  Name = ox1_orig_f12_ligand
  5 active torsions:
  status: ('A' for Active; 'I' for Inactive)
    1  A    between atoms: C_1  and  O_2
    2  A    between atoms: O_2  and  C_3
    3  A    between atoms: C_6  and  C_7
    4  A    between atoms: C_7  and  C_9
    5  A    between atoms: C_15  and  O_16
                            x       y       z     vdW  Elec       q    Type
                         _______ _______ _______ _____ _____    ______ ____

>  <TORSDO>
F 4

$$$$
ox1_orig_f12_ligand
 OpenBabel10092621193D

 18 19  0  0  0  0  0  0  0  0999 V2000
   -4.7440   -0.6630   -1.4870 C   0  0  0  0  0  0  0  0  0  0  0  0
   -5.1110   -0.5280   -2.8220 C   0  0  0  0  0  3  0  0  0  0  0  0
   -4.1750   -0.7480   -3.8230 C   0  0  0  0  0  3  0  0  0  0  0  0
   -2.8650   -1.0950   -3.5050 C   0  0  0  0  0  0  0  0  0  0  0  0
   -2.5060   -1.2350   -2.1690 C   0  0  0  0  0  0  0  0  0  0  0  0
   -3.4450   -1.0230   -1.1730 C   0  0  0  0  0  3  0  0  0  0  0  0
   -6.7760    0.4270   -0.8110 C   0  0  0  0  0  1  0  0  0  0  0  0
   -5.6970   -0.4340   -0.5310 O   0  0  0  0  0  0  0  0  0  0  0  0
   -1.8340   -1.3420   -4.5730 C   0  0  0  0  0  0  0  0  0  0  0  0
   -1.0500   -0.4490   -4.8240 O   0  0  0  0  0  0  0  0  0  0  0  0
   -1.7090   -2.6270   -5.2980 C   0  0  0  0  0  0  0  0  0  0  0  0
   -2.5650   -3.6920   -5.0480 C   0  0  0  0  0  3  0  0  0  0  0  0
   -2.4250   -4.8800   -5.7300 C   0  0  0  0  0  3  0  0  0  0  0  0
   -1.4250   -5.0240   -6.6780 C   0  0  0  0  0  3  0  0  0  0  0  0
   -0.5730   -3.9640   -6.9530 C   0  0  0  0  0  3  0  0  0  0  0  0
   -0.7190   -2.7530   -6.2830 C   0  0  0  0  0  3  0  0  0  0  0  0
   -1.2310   -1.5860   -1.8650 O   0  0  0  0  0  0  0  0  0  0  0  0
   -0.5240   -0.8930   -1.8210 H   0  0  0  0  0  0  0  0  0  0  0  0
  1  6  1  0  0  0  0
  1  8  1  0  0  0  0
  2  1  2  0  0  0  0
  3  4  2  0  0  0  0
  3  2  1  0  0  0  0
  4  5  1  0  0  0  0
  5 17  1  0  0  0  0
  5  6  2  0  0  0  0
  7  8  1  0  0  0  0
  9  4  1  0  0  0  0
 10  9  2  0  0  0  0
 11 12  1  0  0  0  0
 11  9  1  0  0  0  0
 13 12  2  0  0  0  0
 14 13  1  0  0  0  0
 15 14  2  0  0  0  0
 15 16  1  0  0  0  0
 16 11  2  0  0  0  0
 17 18  1  0  0  0  0
M  END
>  <MODEL>
8

>  <REMARK>
 VINA RESULT:      -5.1      1.787      6.276
  Name = ox1_orig_f12_ligand
  5 active torsions:
  status: ('A' for Active; 'I' for Inactive)
    1  A    between atoms: C_1  and  O_2
    2  A    between atoms: O_2  and  C_3
    3  A    between atoms: C_6  and  C_7
    4  A    between atoms: C_7  and  C_9
    5  A    between atoms: C_15  and  O_16
                            x       y       z     vdW  Elec       q    Type
                         _______ _______ _______ _____ _____    ______ ____

>  <TORSDO>
F 4

$$$$
ox1_orig_f12_ligand
 OpenBabel10092621193D

 18 19  0  0  0  0  0  0  0  0999 V2000
   -4.9980    0.9290    0.3890 C   0  0  0  0  0  0  0  0  0  0  0  0
   -4.0750    1.4560   -0.5070 C   0  0  0  0  0  3  0  0  0  0  0  0
   -4.0240    0.9790   -1.8100 C   0  0  0  0  0  3  0  0  0  0  0  0
   -4.8840   -0.0330   -2.2280 C   0  0  0  0  0  0  0  0  0  0  0  0
   -5.8100   -0.5510   -1.3290 C   0  0  0  0  0  0  0  0  0  0  0  0
   -5.8630   -0.0660   -0.0320 C   0  0  0  0  0  3  0  0  0  0  0  0
   -4.9770    0.5410    2.7620 C   0  0  0  0  0  1  0  0  0  0  0  0
   -5.0120    1.4250    1.6660 O   0  0  0  0  0  0  0  0  0  0  0  0
   -4.8500   -0.5630   -3.6360 C   0  0  0  0  0  0  0  0  0  0  0  0
   -5.7260   -0.2100   -4.3980 O   0  0  0  0  0  0  0  0  0  0  0  0
   -3.7820   -1.4570   -4.1400 C   0  0  0  0  0  0  0  0  0  0  0  0
   -3.7780   -1.9230   -5.4490 C   0  0  0  0  0  3  0  0  0  0  0  0
   -2.7790   -2.7580   -5.8940 C   0  0  0  0  0  3  0  0  0  0  0  0
   -1.7600   -3.1420   -5.0360 C   0  0  0  0  0  3  0  0  0  0  0  0
   -1.7390   -2.6710   -3.7300 C   0  0  0  0  0  3  0  0  0  0  0  0
   -2.7340   -1.8100   -3.2780 C   0  0  0  0  0  3  0  0  0  0  0  0
   -6.6540   -1.5270   -1.7450 O   0  0  0  0  0  0  0  0  0  0  0  0
   -6.4240   -2.0780   -2.5360 H   0  0  0  0  0  0  0  0  0  0  0  0
  1  8  1  0  0  0  0
  2  1  2  0  0  0  0
  3  2  1  0  0  0  0
  4  3  2  0  0  0  0
  4  5  1  0  0  0  0
  5  6  2  0  0  0  0
  6  1  1  0  0  0  0
  8  7  1  0  0  0  0
  9  4  1  0  0  0  0
 10  9  2  0  0  0  0
 11  9  1  0  0  0  0
 11 16  1  0  0  0  0
 12 11  2  0  0  0  0
 13 12  1  0  0  0  0
 13 14  2  0  0  0  0
 14 15  1  0  0  0  0
 15 16  2  0  0  0  0
 17  5  1  0  0  0  0
 18 17  1  0  0  0  0
M  END
>  <MODEL>
9

>  <REMARK>
 VINA RESULT:      -4.7      2.221      6.061
  Name = ox1_orig_f12_ligand
  5 active torsions:
  status: ('A' for Active; 'I' for Inactive)
    1  A    between atoms: C_1  and  O_2
    2  A    between atoms: O_2  and  C_3
    3  A    between atoms: C_6  and  C_7
    4  A    between atoms: C_7  and  C_9
    5  A    between atoms: C_15  and  O_16
                            x       y       z     vdW  Elec       q    Type
                         _______ _______ _______ _____ _____    ______ ____

>  <TORSDO>
F 4

$$$$
