ox2_esm1_f8_ligand
     RDKit          3D

 29 30  0  0  0  0  0  0  0  0999 V2000
    0.9640    5.7072    3.8788 C   0  0  0  0  0  0  0  0  0  0  0  0
    0.9036    5.0351    5.1574 O   0  0  0  0  0  0  0  0  0  0  0  0
    0.4588    3.7468    5.2158 C   0  0  0  0  0  0  0  0  0  0  0  0
    0.0457    3.0456    4.0855 C   0  0  0  0  0  0  0  0  0  0  0  0
   -0.4055    1.7429    4.1999 C   0  0  0  0  0  0  0  0  0  0  0  0
   -0.4358    1.1208    5.4353 C   0  0  0  0  0  0  0  0  0  0  0  0
   -0.9108   -0.2905    5.5735 C   0  0  0  0  0  0  0  0  0  0  0  0
   -1.1792   -0.7279    6.6721 O   0  0  0  0  0  0  0  0  0  0  0  0
   -1.0735   -1.1640    4.3926 C   0  0  0  0  0  0  0  0  0  0  0  0
   -2.2726   -1.8416    4.1950 C   0  0  0  0  0  0  0  0  0  0  0  0
   -2.4266   -2.6568    3.0773 C   0  0  0  0  0  0  0  0  0  0  0  0
   -1.3885   -2.8331    2.1729 C   0  0  0  0  0  0  0  0  0  0  0  0
   -0.1830   -2.1873    2.3995 C   0  0  0  0  0  0  0  0  0  0  0  0
   -0.0251   -1.3510    3.5051 C   0  0  0  0  0  0  0  0  0  0  0  0
   -0.0240    1.8208    6.5782 C   0  0  0  0  0  0  0  0  0  0  0  0
   -0.0669    1.1994    7.7963 O   0  0  0  0  0  0  0  0  0  0  0  0
    0.4184    3.1370    6.4507 C   0  0  0  0  0  0  0  0  0  0  0  0
   -0.0087    6.1737    3.6637 H   0  0  0  0  0  0  0  0  0  0  0  0
    1.7439    6.4823    3.9085 H   0  0  0  0  0  0  0  0  0  0  0  0
    1.2025    4.9769    3.0917 H   0  0  0  0  0  0  0  0  0  0  0  0
    0.0782    3.5295    3.0982 H   0  0  0  0  0  0  0  0  0  0  0  0
   -0.7417    1.1993    3.3047 H   0  0  0  0  0  0  0  0  0  0  0  0
   -3.0944   -1.7338    4.9182 H   0  0  0  0  0  0  0  0  0  0  0  0
   -3.3854   -3.1688    2.9081 H   0  0  0  0  0  0  0  0  0  0  0  0
   -1.5203   -3.4756    1.2898 H   0  0  0  0  0  0  0  0  0  0  0  0
    0.6552   -2.3352    1.7027 H   0  0  0  0  0  0  0  0  0  0  0  0
    0.9338   -0.8387    3.6731 H   0  0  0  0  0  0  0  0  0  0  0  0
    0.2215    1.6844    8.6097 H   0  0  0  0  0  0  0  0  0  0  0  0
    0.7383    3.6936    7.3441 H   0  0  0  0  0  0  0  0  0  0  0  0
  2  1  1  0
  3  2  1  0
  4  3  1  0
  5  4  2  0
  6  5  1  0
  7  6  1  0
  8  7  2  0
  9  7  1  0
 10  9  2  0
 11 10  1  0
 12 11  2  0
 13 12  1  0
 14 13  2  0
 14  9  1  0
 15  6  2  0
 16 15  1  0
 17 15  1  0
 17  3  2  0
  1 18  1  0
  1 19  1  0
  1 20  1  0
  4 21  1  0
  5 22  1  0
 10 23  1  0
 11 24  1  0
 12 25  1  0
 13 26  1  0
 14 27  1  0
 16 28  1  0
 17 29  1  0
M  END
$$$$
