ox2_esm1_f8_ligand
 OpenBabel10092621203D

 18 19  0  0  0  0  0  0  0  0999 V2000
    4.5810   -0.4140   -3.8450 C   0  0  0  0  0  0  0  0  0  0  0  0
    4.5900    0.8220   -4.4870 C   0  0  0  0  0  3  0  0  0  0  0  0
    4.2990    1.9760   -3.7810 C   0  0  0  0  0  3  0  0  0  0  0  0
    3.9810    1.9100   -2.4370 C   0  0  0  0  0  0  0  0  0  0  0  0
    3.9720    0.6700   -1.7830 C   0  0  0  0  0  0  0  0  0  0  0  0
    4.2790   -0.4840   -2.5020 C   0  0  0  0  0  3  0  0  0  0  0  0
    4.8830   -2.8190   -3.7520 C   0  0  0  0  0  1  0  0  0  0  0  0
    4.8690   -1.5790   -4.4940 O   0  0  0  0  0  0  0  0  0  0  0  0
    3.6530    3.1470   -1.6630 C   0  0  0  0  0  0  0  0  0  0  0  0
    2.4960    3.4150   -1.4210 O   0  0  0  0  0  0  0  0  0  0  0  0
    4.7170    4.0480   -1.1720 C   0  0  0  0  0  0  0  0  0  0  0  0
    4.9910    5.2300   -1.8560 C   0  0  0  0  0  3  0  0  0  0  0  0
    5.9870    6.0820   -1.3870 C   0  0  0  0  0  3  0  0  0  0  0  0
    6.7360    5.7560   -0.2660 C   0  0  0  0  0  3  0  0  0  0  0  0
    6.4850    4.5570    0.3860 C   0  0  0  0  0  3  0  0  0  0  0  0
    5.4760    3.7060   -0.0630 C   0  0  0  0  0  3  0  0  0  0  0  0
    3.6650    0.6180   -0.4500 O   0  0  0  0  0  0  0  0  0  0  0  0
    4.0040   -0.1290    0.1070 H   0  0  0  0  0  0  0  0  0  0  0  0
  1  6  1  0  0  0  0
  2  1  2  0  0  0  0
  2  3  1  0  0  0  0
  3  4  2  0  0  0  0
  4  5  1  0  0  0  0
  4  9  1  0  0  0  0
  5 17  1  0  0  0  0
  6  5  2  0  0  0  0
  8  1  1  0  0  0  0
  8  7  1  0  0  0  0
  9 10  2  0  0  0  0
  9 11  1  0  0  0  0
 11 16  1  0  0  0  0
 12 13  1  0  0  0  0
 12 11  2  0  0  0  0
 13 14  2  0  0  0  0
 14 15  1  0  0  0  0
 16 15  2  0  0  0  0
 17 18  1  0  0  0  0
M  END
>  <MODEL>
1

>  <REMARK>
 VINA RESULT:      -4.5      0.000      0.000
  Name = ox2_esm1_f8_ligand
  5 active torsions:
  status: ('A' for Active; 'I' for Inactive)
    1  A    between atoms: C_1  and  O_2
    2  A    between atoms: O_2  and  C_3
    3  A    between atoms: C_6  and  C_7
    4  A    between atoms: C_7  and  C_9
    5  A    between atoms: C_15  and  O_16
                            x       y       z     vdW  Elec       q    Type
                         _______ _______ _______ _____ _____    ______ ____

>  <TORSDO>
F 4

$$$$
ox2_esm1_f8_ligand
 OpenBabel10092621203D

 18 19  0  0  0  0  0  0  0  0999 V2000
    5.7370    1.2230    0.9810 C   0  0  0  0  0  0  0  0  0  0  0  0
    4.7940    0.4680    0.2870 C   0  0  0  0  0  3  0  0  0  0  0  0
    4.0810    1.0330   -0.7570 C   0  0  0  0  0  3  0  0  0  0  0  0
    4.2880    2.3540   -1.1080 C   0  0  0  0  0  0  0  0  0  0  0  0
    5.2370    3.1200   -0.4160 C   0  0  0  0  0  0  0  0  0  0  0  0
    5.9570    2.5360    0.6260 C   0  0  0  0  0  3  0  0  0  0  0  0
    5.7940    0.0610    3.1090 C   0  0  0  0  0  1  0  0  0  0  0  0
    6.4710    0.7110    2.0100 O   0  0  0  0  0  0  0  0  0  0  0  0
    3.5180    2.9820   -2.2260 C   0  0  0  0  0  0  0  0  0  0  0  0
    2.6100    3.7450   -1.9760 O   0  0  0  0  0  0  0  0  0  0  0  0
    3.8490    2.6990   -3.6390 C   0  0  0  0  0  0  0  0  0  0  0  0
    5.1810    2.5660   -4.0220 C   0  0  0  0  0  3  0  0  0  0  0  0
    5.4910    2.2900   -5.3510 C   0  0  0  0  0  3  0  0  0  0  0  0
    4.4930    2.1800   -6.3090 C   0  0  0  0  0  3  0  0  0  0  0  0
    3.1710    2.3550   -5.9260 C   0  0  0  0  0  3  0  0  0  0  0  0
    2.8480    2.6100   -4.5940 C   0  0  0  0  0  3  0  0  0  0  0  0
    5.4390    4.4230   -0.7790 O   0  0  0  0  0  0  0  0  0  0  0  0
    5.8570    4.6350   -1.6520 H   0  0  0  0  0  0  0  0  0  0  0  0
  1  8  1  0  0  0  0
  2  1  2  0  0  0  0
  3  2  1  0  0  0  0
  4  3  2  0  0  0  0
  4  5  1  0  0  0  0
  5  6  2  0  0  0  0
  6  1  1  0  0  0  0
  8  7  1  0  0  0  0
  9 10  2  0  0  0  0
  9  4  1  0  0  0  0
 11  9  1  0  0  0  0
 12 11  1  0  0  0  0
 13 12  2  0  0  0  0
 14 15  2  0  0  0  0
 14 13  1  0  0  0  0
 15 16  1  0  0  0  0
 16 11  2  0  0  0  0
 17  5  1  0  0  0  0
 18 17  1  0  0  0  0
M  END
>  <MODEL>
2

>  <REMARK>
 VINA RESULT:      -4.4      2.791      4.898
  Name = ox2_esm1_f8_ligand
  5 active torsions:
  status: ('A' for Active; 'I' for Inactive)
    1  A    between atoms: C_1  and  O_2
    2  A    between atoms: O_2  and  C_3
    3  A    between atoms: C_6  and  C_7
    4  A    between atoms: C_7  and  C_9
    5  A    between atoms: C_15  and  O_16
                            x       y       z     vdW  Elec       q    Type
                         _______ _______ _______ _____ _____    ______ ____

>  <TORSDO>
F 4

$$$$
ox2_esm1_f8_ligand
 OpenBabel10092621203D

 18 19  0  0  0  0  0  0  0  0999 V2000
    5.8200    1.4610    1.0660 C   0  0  0  0  0  0  0  0  0  0  0  0
    5.8960    2.8060    0.7080 C   0  0  0  0  0  3  0  0  0  0  0  0
    5.1950    3.2750   -0.3890 C   0  0  0  0  0  3  0  0  0  0  0  0
    4.4280    2.4110   -1.1490 C   0  0  0  0  0  0  0  0  0  0  0  0
    4.3450    1.0570   -0.7940 C   0  0  0  0  0  0  0  0  0  0  0  0
    5.0450    0.5990    0.3200 C   0  0  0  0  0  3  0  0  0  0  0  0
    5.7290    0.3820    3.2360 C   0  0  0  0  0  1  0  0  0  0  0  0
    6.4830    0.9520    2.1430 O   0  0  0  0  0  0  0  0  0  0  0  0
    3.6740    2.9000   -2.3440 C   0  0  0  0  0  0  0  0  0  0  0  0
    2.6400    3.5140   -2.1920 O   0  0  0  0  0  0  0  0  0  0  0  0
    4.1720    2.6610   -3.7150 C   0  0  0  0  0  0  0  0  0  0  0  0
    3.2680    2.4150   -4.7460 C   0  0  0  0  0  3  0  0  0  0  0  0
    3.7380    2.2000   -6.0380 C   0  0  0  0  0  3  0  0  0  0  0  0
    5.0990    2.1900   -6.3100 C   0  0  0  0  0  3  0  0  0  0  0  0
    5.9940    2.3940   -5.2710 C   0  0  0  0  0  3  0  0  0  0  0  0
    5.5330    2.6330   -3.9760 C   0  0  0  0  0  3  0  0  0  0  0  0
    3.5750    0.2130   -1.5470 O   0  0  0  0  0  0  0  0  0  0  0  0
    3.9710   -0.2580   -2.3240 H   0  0  0  0  0  0  0  0  0  0  0  0
  1  8  1  0  0  0  0
  2  1  1  0  0  0  0
  3  2  2  0  0  0  0
  4  5  2  0  0  0  0
  4  3  1  0  0  0  0
  5  6  1  0  0  0  0
  6  1  2  0  0  0  0
  8  7  1  0  0  0  0
  9 10  2  0  0  0  0
  9  4  1  0  0  0  0
 11  9  1  0  0  0  0
 12 11  2  0  0  0  0
 13 12  1  0  0  0  0
 14 13  2  0  0  0  0
 14 15  1  0  0  0  0
 15 16  2  0  0  0  0
 16 11  1  0  0  0  0
 17  5  1  0  0  0  0
 18 17  1  0  0  0  0
M  END
>  <MODEL>
3

>  <REMARK>
 VINA RESULT:      -4.3      2.320      4.723
  Name = ox2_esm1_f8_ligand
  5 active torsions:
  status: ('A' for Active; 'I' for Inactive)
    1  A    between atoms: C_1  and  O_2
    2  A    between atoms: O_2  and  C_3
    3  A    between atoms: C_6  and  C_7
    4  A    between atoms: C_7  and  C_9
    5  A    between atoms: C_15  and  O_16
                            x       y       z     vdW  Elec       q    Type
                         _______ _______ _______ _____ _____    ______ ____

>  <TORSDO>
F 4

$$$$
ox2_esm1_f8_ligand
 OpenBabel10092621203D

 18 19  0  0  0  0  0  0  0  0999 V2000
   -3.9760   -2.3320    4.5500 C   0  0  0  0  0  0  0  0  0  0  0  0
   -3.0980   -3.3000    4.0660 C   0  0  0  0  0  3  0  0  0  0  0  0
   -3.5860   -4.4120    3.4030 C   0  0  0  0  0  3  0  0  0  0  0  0
   -4.9480   -4.5800    3.2280 C   0  0  0  0  0  0  0  0  0  0  0  0
   -5.8370   -3.6080    3.7100 C   0  0  0  0  0  0  0  0  0  0  0  0
   -5.3330   -2.4860    4.3660 C   0  0  0  0  0  3  0  0  0  0  0  0
   -3.4600   -1.2230    6.6450 C   0  0  0  0  0  1  0  0  0  0  0  0
   -3.5450   -1.2140    5.2020 O   0  0  0  0  0  0  0  0  0  0  0  0
   -5.4910   -5.7810    2.5230 C   0  0  0  0  0  0  0  0  0  0  0  0
   -6.0370   -6.6560    3.1610 O   0  0  0  0  0  0  0  0  0  0  0  0
   -5.3860   -5.9210    1.0550 C   0  0  0  0  0  0  0  0  0  0  0  0
   -5.6050   -4.8150    0.2390 C   0  0  0  0  0  3  0  0  0  0  0  0
   -5.4960   -4.9470   -1.1430 C   0  0  0  0  0  3  0  0  0  0  0  0
   -5.2070   -6.1740   -1.7230 C   0  0  0  0  0  3  0  0  0  0  0  0
   -5.0310   -7.2790   -0.9040 C   0  0  0  0  0  3  0  0  0  0  0  0
   -5.1160   -7.1540    0.4820 C   0  0  0  0  0  3  0  0  0  0  0  0
   -7.1810   -3.7790    3.5230 O   0  0  0  0  0  0  0  0  0  0  0  0
   -7.5440   -4.6810    3.3330 H   0  0  0  0  0  0  0  0  0  0  0  0
  1  8  1  0  0  0  0
  2  1  2  0  0  0  0
  3  2  1  0  0  0  0
  4  3  2  0  0  0  0
  4  5  1  0  0  0  0
  5  6  2  0  0  0  0
  6  1  1  0  0  0  0
  8  7  1  0  0  0  0
  9 10  2  0  0  0  0
  9  4  1  0  0  0  0
 11  9  1  0  0  0  0
 12 11  2  0  0  0  0
 13 12  1  0  0  0  0
 14 13  2  0  0  0  0
 14 15  1  0  0  0  0
 15 16  2  0  0  0  0
 16 11  1  0  0  0  0
 17  5  1  0  0  0  0
 18 17  1  0  0  0  0
M  END
>  <MODEL>
4

>  <REMARK>
 VINA RESULT:      -4.2     11.773     13.799
  Name = ox2_esm1_f8_ligand
  5 active torsions:
  status: ('A' for Active; 'I' for Inactive)
    1  A    between atoms: C_1  and  O_2
    2  A    between atoms: O_2  and  C_3
    3  A    between atoms: C_6  and  C_7
    4  A    between atoms: C_7  and  C_9
    5  A    between atoms: C_15  and  O_16
                            x       y       z     vdW  Elec       q    Type
                         _______ _______ _______ _____ _____    ______ ____

>  <TORSDO>
F 4

$$$$
ox2_esm1_f8_ligand
 OpenBabel10092621203D

 18 19  0  0  0  0  0  0  0  0999 V2000
    4.2130    2.0900   -1.1960 C   0  0  0  0  0  0  0  0  0  0  0  0
    3.5370    3.1390   -1.8150 C   0  0  0  0  0  3  0  0  0  0  0  0
    4.0880    4.4080   -1.8330 C   0  0  0  0  0  3  0  0  0  0  0  0
    5.3060    4.6490   -1.2230 C   0  0  0  0  0  0  0  0  0  0  0  0
    5.9930    3.5980   -0.5990 C   0  0  0  0  0  0  0  0  0  0  0  0
    5.4330    2.3210   -0.5980 C   0  0  0  0  0  3  0  0  0  0  0  0
    4.0410   -0.1000   -2.2250 C   0  0  0  0  0  1  0  0  0  0  0  0
    3.7160    0.8200   -1.1580 O   0  0  0  0  0  0  0  0  0  0  0  0
    5.9090    6.0170   -1.2240 C   0  0  0  0  0  0  0  0  0  0  0  0
    6.1330    6.5760   -0.1720 O   0  0  0  0  0  0  0  0  0  0  0  0
    6.2520    6.7030   -2.4880 C   0  0  0  0  0  0  0  0  0  0  0  0
    7.1000    6.0830   -3.4020 C   0  0  0  0  0  3  0  0  0  0  0  0
    7.4130    6.7260   -4.5960 C   0  0  0  0  0  3  0  0  0  0  0  0
    6.9210    7.9930   -4.8750 C   0  0  0  0  0  3  0  0  0  0  0  0
    6.1110    8.6210   -3.9410 C   0  0  0  0  0  3  0  0  0  0  0  0
    5.7730    7.9770   -2.7510 C   0  0  0  0  0  3  0  0  0  0  0  0
    7.2010    3.8450   -0.0070 O   0  0  0  0  0  0  0  0  0  0  0  0
    7.9050    4.3340   -0.5040 H   0  0  0  0  0  0  0  0  0  0  0  0
  1  8  1  0  0  0  0
  1  6  1  0  0  0  0
  2  1  2  0  0  0  0
  3  2  1  0  0  0  0
  3  4  2  0  0  0  0
  4  5  1  0  0  0  0
  5  6  2  0  0  0  0
  5 17  1  0  0  0  0
  7  8  1  0  0  0  0
  9  4  1  0  0  0  0
  9 10  2  0  0  0  0
 11  9  1  0  0  0  0
 12 11  2  0  0  0  0
 13 12  1  0  0  0  0
 14 13  2  0  0  0  0
 14 15  1  0  0  0  0
 15 16  2  0  0  0  0
 16 11  1  0  0  0  0
 18 17  1  0  0  0  0
M  END
>  <MODEL>
5

>  <REMARK>
 VINA RESULT:      -4.2      2.541      4.081
  Name = ox2_esm1_f8_ligand
  5 active torsions:
  status: ('A' for Active; 'I' for Inactive)
    1  A    between atoms: C_1  and  O_2
    2  A    between atoms: O_2  and  C_3
    3  A    between atoms: C_6  and  C_7
    4  A    between atoms: C_7  and  C_9
    5  A    between atoms: C_15  and  O_16
                            x       y       z     vdW  Elec       q    Type
                         _______ _______ _______ _____ _____    ______ ____

>  <TORSDO>
F 4

$$$$
ox2_esm1_f8_ligand
 OpenBabel10092621203D

 18 19  0  0  0  0  0  0  0  0999 V2000
    5.3220   -2.5320   -4.2010 C   0  0  0  0  0  0  0  0  0  0  0  0
    4.3540   -2.0080   -3.3470 C   0  0  0  0  0  3  0  0  0  0  0  0
    3.9370   -0.6960   -3.4890 C   0  0  0  0  0  3  0  0  0  0  0  0
    4.4900    0.1100   -4.4670 C   0  0  0  0  0  0  0  0  0  0  0  0
    5.4630   -0.4110   -5.3320 C   0  0  0  0  0  0  0  0  0  0  0  0
    5.8660   -1.7380   -5.1870 C   0  0  0  0  0  3  0  0  0  0  0  0
    5.0130   -4.7680   -3.3130 C   0  0  0  0  0  1  0  0  0  0  0  0
    5.7600   -3.8210   -4.1090 O   0  0  0  0  0  0  0  0  0  0  0  0
    4.0590    1.5330   -4.6250 C   0  0  0  0  0  0  0  0  0  0  0  0
    3.5010    1.8820   -5.6440 O   0  0  0  0  0  0  0  0  0  0  0  0
    4.2890    2.5270   -3.5560 C   0  0  0  0  0  0  0  0  0  0  0  0
    3.2110    3.0070   -2.8160 C   0  0  0  0  0  3  0  0  0  0  0  0
    3.4300    3.9360   -1.8030 C   0  0  0  0  0  3  0  0  0  0  0  0
    4.7050    4.4180   -1.5400 C   0  0  0  0  0  3  0  0  0  0  0  0
    5.7670    3.9660   -2.3090 C   0  0  0  0  0  3  0  0  0  0  0  0
    5.5610    3.0200   -3.3120 C   0  0  0  0  0  3  0  0  0  0  0  0
    5.9960    0.3930   -6.3020 O   0  0  0  0  0  0  0  0  0  0  0  0
    6.8810    0.1780   -6.6920 H   0  0  0  0  0  0  0  0  0  0  0  0
  1  8  1  0  0  0  0
  1  2  1  0  0  0  0
  3  2  2  0  0  0  0
  4  3  1  0  0  0  0
  5  6  1  0  0  0  0
  5  4  2  0  0  0  0
  6  1  2  0  0  0  0
  8  7  1  0  0  0  0
  9  4  1  0  0  0  0
  9 11  1  0  0  0  0
 10  9  2  0  0  0  0
 11 16  2  0  0  0  0
 11 12  1  0  0  0  0
 12 13  2  0  0  0  0
 13 14  1  0  0  0  0
 15 14  2  0  0  0  0
 16 15  1  0  0  0  0
 17  5  1  0  0  0  0
 18 17  1  0  0  0  0
M  END
>  <MODEL>
6

>  <REMARK>
 VINA RESULT:      -4.2      2.292      3.382
  Name = ox2_esm1_f8_ligand
  5 active torsions:
  status: ('A' for Active; 'I' for Inactive)
    1  A    between atoms: C_1  and  O_2
    2  A    between atoms: O_2  and  C_3
    3  A    between atoms: C_6  and  C_7
    4  A    between atoms: C_7  and  C_9
    5  A    between atoms: C_15  and  O_16
                            x       y       z     vdW  Elec       q    Type
                         _______ _______ _______ _____ _____    ______ ____

>  <TORSDO>
F 4

$$$$
ox2_esm1_f8_ligand
 OpenBabel10092621203D

 18 19  0  0  0  0  0  0  0  0999 V2000
   -4.8330   -7.4320   -0.4400 C   0  0  0  0  0  0  0  0  0  0  0  0
   -5.1070   -7.6210    0.9130 C   0  0  0  0  0  3  0  0  0  0  0  0
   -5.5900   -6.5750    1.6790 C   0  0  0  0  0  3  0  0  0  0  0  0
   -5.7910   -5.3290    1.1120 C   0  0  0  0  0  0  0  0  0  0  0  0
   -5.5200   -5.1320   -0.2500 C   0  0  0  0  0  0  0  0  0  0  0  0
   -5.0440   -6.1970   -1.0130 C   0  0  0  0  0  3  0  0  0  0  0  0
   -3.1220   -9.0890   -0.8990 C   0  0  0  0  0  1  0  0  0  0  0  0
   -4.3640   -8.4330   -1.2390 O   0  0  0  0  0  0  0  0  0  0  0  0
   -6.3020   -4.1860    1.9280 C   0  0  0  0  0  0  0  0  0  0  0  0
   -7.4490   -3.8180    1.7950 O   0  0  0  0  0  0  0  0  0  0  0  0
   -5.4360   -3.4970    2.9090 C   0  0  0  0  0  0  0  0  0  0  0  0
   -4.0870   -3.8290    2.9920 C   0  0  0  0  0  3  0  0  0  0  0  0
   -3.2710   -3.1720    3.9090 C   0  0  0  0  0  3  0  0  0  0  0  0
   -3.7900   -2.2150    4.7690 C   0  0  0  0  0  3  0  0  0  0  0  0
   -5.1440   -1.9200    4.7080 C   0  0  0  0  0  3  0  0  0  0  0  0
   -5.9660   -2.5560    3.7780 C   0  0  0  0  0  3  0  0  0  0  0  0
   -5.7310   -3.8980   -0.8030 O   0  0  0  0  0  0  0  0  0  0  0  0
   -5.8180   -3.8040   -1.7850 H   0  0  0  0  0  0  0  0  0  0  0  0
  1  2  1  0  0  0  0
  2  3  2  0  0  0  0
  4  3  1  0  0  0  0
  4  9  1  0  0  0  0
  5  4  2  0  0  0  0
  6  1  2  0  0  0  0
  6  5  1  0  0  0  0
  8  7  1  0  0  0  0
  8  1  1  0  0  0  0
  9 11  1  0  0  0  0
 10  9  2  0  0  0  0
 11 12  2  0  0  0  0
 11 16  1  0  0  0  0
 12 13  1  0  0  0  0
 13 14  2  0  0  0  0
 15 14  1  0  0  0  0
 16 15  2  0  0  0  0
 17  5  1  0  0  0  0
 18 17  1  0  0  0  0
M  END
>  <MODEL>
7

>  <REMARK>
 VINA RESULT:      -4.1     11.767     12.806
  Name = ox2_esm1_f8_ligand
  5 active torsions:
  status: ('A' for Active; 'I' for Inactive)
    1  A    between atoms: C_1  and  O_2
    2  A    between atoms: O_2  and  C_3
    3  A    between atoms: C_6  and  C_7
    4  A    between atoms: C_7  and  C_9
    5  A    between atoms: C_15  and  O_16
                            x       y       z     vdW  Elec       q    Type
                         _______ _______ _______ _____ _____    ______ ____

>  <TORSDO>
F 4

$$$$
ox2_esm1_f8_ligand
 OpenBabel10092621203D

 18 19  0  0  0  0  0  0  0  0999 V2000
    4.4320   -0.8090    4.2780 C   0  0  0  0  0  0  0  0  0  0  0  0
    4.7200    0.5490    4.1580 C   0  0  0  0  0  3  0  0  0  0  0  0
    5.2350    1.0500    2.9750 C   0  0  0  0  0  3  0  0  0  0  0  0
    5.4830    0.2050    1.9090 C   0  0  0  0  0  0  0  0  0  0  0  0
    5.1930   -1.1630    2.0210 C   0  0  0  0  0  0  0  0  0  0  0  0
    4.6640   -1.6530    3.2140 C   0  0  0  0  0  3  0  0  0  0  0  0
    3.4550   -0.4750    6.4730 C   0  0  0  0  0  1  0  0  0  0  0  0
    3.9160   -1.3500    5.4190 O   0  0  0  0  0  0  0  0  0  0  0  0
    6.0490    0.7290    0.6280 C   0  0  0  0  0  0  0  0  0  0  0  0
    7.1260    0.3300    0.2400 O   0  0  0  0  0  0  0  0  0  0  0  0
    5.3140    1.7190   -0.1870 C   0  0  0  0  0  0  0  0  0  0  0  0
    5.8080    3.0150   -0.3100 C   0  0  0  0  0  3  0  0  0  0  0  0
    5.1200    3.9440   -1.0860 C   0  0  0  0  0  3  0  0  0  0  0  0
    3.9270    3.6080   -1.7110 C   0  0  0  0  0  3  0  0  0  0  0  0
    3.4200    2.3270   -1.5490 C   0  0  0  0  0  3  0  0  0  0  0  0
    4.1130    1.3820   -0.7920 C   0  0  0  0  0  3  0  0  0  0  0  0
    5.4340   -1.9880    0.9570 O   0  0  0  0  0  0  0  0  0  0  0  0
    5.5440   -2.9620    1.1000 H   0  0  0  0  0  0  0  0  0  0  0  0
  1  8  1  0  0  0  0
  2  1  1  0  0  0  0
  3  2  2  0  0  0  0
  4  5  2  0  0  0  0
  4  3  1  0  0  0  0
  5  6  1  0  0  0  0
  6  1  2  0  0  0  0
  8  7  1  0  0  0  0
  9  4  1  0  0  0  0
 10  9  2  0  0  0  0
 11  9  1  0  0  0  0
 12 11  1  0  0  0  0
 13 12  2  0  0  0  0
 14 15  2  0  0  0  0
 14 13  1  0  0  0  0
 15 16  1  0  0  0  0
 16 11  2  0  0  0  0
 17 18  1  0  0  0  0
 17  5  1  0  0  0  0
M  END
>  <MODEL>
8

>  <REMARK>
 VINA RESULT:      -4.1      4.160      5.942
  Name = ox2_esm1_f8_ligand
  5 active torsions:
  status: ('A' for Active; 'I' for Inactive)
    1  A    between atoms: C_1  and  O_2
    2  A    between atoms: O_2  and  C_3
    3  A    between atoms: C_6  and  C_7
    4  A    between atoms: C_7  and  C_9
    5  A    between atoms: C_15  and  O_16
                            x       y       z     vdW  Elec       q    Type
                         _______ _______ _______ _____ _____    ______ ____

>  <TORSDO>
F 4

$$$$
ox2_esm1_f8_ligand
 OpenBabel10092621203D

 18 19  0  0  0  0  0  0  0  0999 V2000
   -5.4560    7.5330   -1.7500 C   0  0  0  0  0  0  0  0  0  0  0  0
   -5.6090    7.9180   -0.4190 C   0  0  0  0  0  3  0  0  0  0  0  0
   -6.2790    7.0970    0.4700 C   0  0  0  0  0  3  0  0  0  0  0  0
   -6.8170    5.8960    0.0430 C   0  0  0  0  0  0  0  0  0  0  0  0
   -6.6650    5.5010   -1.2940 C   0  0  0  0  0  0  0  0  0  0  0  0
   -5.9770    6.3310   -2.1780 C   0  0  0  0  0  3  0  0  0  0  0  0
   -5.4270    9.4990   -3.1700 C   0  0  0  0  0  1  0  0  0  0  0  0
   -4.7960    8.3020   -2.6630 O   0  0  0  0  0  0  0  0  0  0  0  0
   -7.5540    5.0040    0.9900 C   0  0  0  0  0  0  0  0  0  0  0  0
   -8.7260    4.7620    0.7980 O   0  0  0  0  0  0  0  0  0  0  0  0
   -6.8770    4.3960    2.1550 C   0  0  0  0  0  0  0  0  0  0  0  0
   -6.1160    3.2420    1.9870 C   0  0  0  0  0  3  0  0  0  0  0  0
   -5.4710    2.6770    3.0840 C   0  0  0  0  0  3  0  0  0  0  0  0
   -5.6030    3.2270    4.3510 C   0  0  0  0  0  3  0  0  0  0  0  0
   -6.3960    4.3530    4.5170 C   0  0  0  0  0  3  0  0  0  0  0  0
   -7.0290    4.9400    3.4210 C   0  0  0  0  0  3  0  0  0  0  0  0
   -7.1930    4.3070   -1.7030 O   0  0  0  0  0  0  0  0  0  0  0  0
   -6.5920    3.5720   -1.9880 H   0  0  0  0  0  0  0  0  0  0  0  0
  1  2  1  0  0  0  0
  2  3  2  0  0  0  0
  4  3  1  0  0  0  0
  4  9  1  0  0  0  0
  5  4  2  0  0  0  0
  6  1  2  0  0  0  0
  6  5  1  0  0  0  0
  7  8  1  0  0  0  0
  8  1  1  0  0  0  0
  9 11  1  0  0  0  0
 10  9  2  0  0  0  0
 11 16  1  0  0  0  0
 12 11  2  0  0  0  0
 12 13  1  0  0  0  0
 13 14  2  0  0  0  0
 14 15  1  0  0  0  0
 16 15  2  0  0  0  0
 17  5  1  0  0  0  0
 18 17  1  0  0  0  0
M  END
>  <MODEL>
9

>  <REMARK>
 VINA RESULT:      -4.0     11.615     12.744
  Name = ox2_esm1_f8_ligand
  5 active torsions:
  status: ('A' for Active; 'I' for Inactive)
    1  A    between atoms: C_1  and  O_2
    2  A    between atoms: O_2  and  C_3
    3  A    between atoms: C_6  and  C_7
    4  A    between atoms: C_7  and  C_9
    5  A    between atoms: C_15  and  O_16
                            x       y       z     vdW  Elec       q    Type
                         _______ _______ _______ _____ _____    ______ ____

>  <TORSDO>
F 4

$$$$
