bgox31_3_ligand
 OpenBabel10092621243D

 18 19  0  0  0  0  0  0  0  0999 V2000
    6.7070    3.2020   -4.4590 C   0  0  0  0  0  0  0  0  0  0  0  0
    5.9360    2.5630   -3.5240 C   0  0  0  0  0  3  0  0  0  0  0  0
    5.7360    3.1340   -2.2730 C   0  0  0  0  0  3  0  0  0  0  0  0
    6.2520    4.3610   -1.9490 C   0  0  0  0  0  0  0  0  0  0  0  0
    7.0240    5.0140   -2.9260 C   0  0  0  0  0  0  0  0  0  0  0  0
    7.2630    4.4610   -4.1360 C   0  0  0  0  0  3  0  0  0  0  0  0
    6.9070    1.2130   -5.8350 C   0  0  0  0  0  1  0  0  0  0  0  0
    6.8950    2.6070   -5.7210 O   0  0  0  0  0  0  0  0  0  0  0  0
    6.0630    4.9730   -0.5930 C   0  0  0  0  0  0  0  0  0  0  0  0
    5.3240    5.9400   -0.4680 O   0  0  0  0  0  0  0  0  0  0  0  0
    6.7660    4.4550    0.6340 C   0  0  0  0  0  0  0  0  0  0  0  0
    6.1460    3.5160    1.4170 C   0  0  0  0  0  3  0  0  0  0  0  0
    6.7910    3.0780    2.5460 C   0  0  0  0  0  3  0  0  0  0  0  0
    8.0650    3.4770    2.7920 C   0  0  0  0  0  3  0  0  0  0  0  0
    8.7540    4.3830    1.9540 C   0  0  0  0  0  3  0  0  0  0  0  0
    8.0390    4.8830    0.8790 C   0  0  0  0  0  3  0  0  0  0  0  0
    7.5920    6.2220   -2.5280 O   0  0  0  0  0  0  0  0  0  0  0  0
    8.5760    6.3100   -2.4660 H   0  0  0  0  0  0  0  0  0  0  0  0
  1  6  2  0  0  0  0
  1  2  1  0  0  0  0
  2  3  2  0  0  0  0
  3  4  1  0  0  0  0
  4  9  1  0  0  0  0
  5 17  1  0  0  0  0
  5  4  2  0  0  0  0
  6  5  1  0  0  0  0
  7  8  1  0  0  0  0
  8  1  1  0  0  0  0
  9 10  2  0  0  0  0
  9 11  1  0  0  0  0
 11 16  2  0  0  0  0
 11 12  1  0  0  0  0
 12 13  2  0  0  0  0
 13 14  1  0  0  0  0
 15 14  2  0  0  0  0
 16 15  1  0  0  0  0
 17 18  1  0  0  0  0
M  END
>  <MODEL>
1

>  <REMARK>
 VINA RESULT:      -4.7      0.000      0.000
  Name = bgox31_3_ligand
  5 active torsions:
  status: ('A' for Active; 'I' for Inactive)
    1  A    between atoms: C_1  and  O_2
    2  A    between atoms: O_2  and  C_3
    3  A    between atoms: C_6  and  C_7
    4  A    between atoms: C_7  and  C_9
    5  A    between atoms: C_15  and  O_16
                            x       y       z     vdW  Elec       q    Type
                         _______ _______ _______ _____ _____    ______ ____

>  <TORSDO>
F 4

$$$$
bgox31_3_ligand
 OpenBabel10092621243D

 18 19  0  0  0  0  0  0  0  0999 V2000
   -1.3110    2.9450  -10.3220 C   0  0  0  0  0  0  0  0  0  0  0  0
   -2.5010    2.3950  -10.7210 C   0  0  0  0  0  3  0  0  0  0  0  0
   -3.0470    1.3250  -10.0220 C   0  0  0  0  0  3  0  0  0  0  0  0
   -2.4530    0.8200   -8.8970 C   0  0  0  0  0  0  0  0  0  0  0  0
   -1.2430    1.4080   -8.4870 C   0  0  0  0  0  0  0  0  0  0  0  0
   -0.6730    2.4230   -9.1730 C   0  0  0  0  0  3  0  0  0  0  0  0
   -1.2350    5.3250  -10.7870 C   0  0  0  0  0  1  0  0  0  0  0  0
   -0.7760    4.0290  -11.0420 O   0  0  0  0  0  0  0  0  0  0  0  0
   -3.0220   -0.3510   -8.1510 C   0  0  0  0  0  0  0  0  0  0  0  0
   -2.3790   -1.3890   -8.0830 O   0  0  0  0  0  0  0  0  0  0  0  0
   -4.3730   -0.3080   -7.4880 C   0  0  0  0  0  0  0  0  0  0  0  0
   -5.0760   -1.4730   -7.3210 C   0  0  0  0  0  3  0  0  0  0  0  0
   -6.3170   -1.4090   -6.7410 C   0  0  0  0  0  3  0  0  0  0  0  0
   -6.7650   -0.2320   -6.2330 C   0  0  0  0  0  3  0  0  0  0  0  0
   -6.0210    0.9670   -6.3230 C   0  0  0  0  0  3  0  0  0  0  0  0
   -4.8170    0.8880   -7.0030 C   0  0  0  0  0  3  0  0  0  0  0  0
   -0.6350    0.8130   -7.3840 O   0  0  0  0  0  0  0  0  0  0  0  0
    0.2680    1.1030   -7.1000 H   0  0  0  0  0  0  0  0  0  0  0  0
  1  6  1  0  0  0  0
  2  1  2  0  0  0  0
  2  3  1  0  0  0  0
  3  4  2  0  0  0  0
  4  5  1  0  0  0  0
  4  9  1  0  0  0  0
  5 17  1  0  0  0  0
  6  5  2  0  0  0  0
  8  7  1  0  0  0  0
  8  1  1  0  0  0  0
  9 10  2  0  0  0  0
  9 11  1  0  0  0  0
 11 12  2  0  0  0  0
 11 16  1  0  0  0  0
 12 13  1  0  0  0  0
 13 14  2  0  0  0  0
 15 14  1  0  0  0  0
 16 15  2  0  0  0  0
 17 18  1  0  0  0  0
M  END
>  <MODEL>
2

>  <REMARK>
 VINA RESULT:      -4.5     11.249     13.140
  Name = bgox31_3_ligand
  5 active torsions:
  status: ('A' for Active; 'I' for Inactive)
    1  A    between atoms: C_1  and  O_2
    2  A    between atoms: O_2  and  C_3
    3  A    between atoms: C_6  and  C_7
    4  A    between atoms: C_7  and  C_9
    5  A    between atoms: C_15  and  O_16
                            x       y       z     vdW  Elec       q    Type
                         _______ _______ _______ _____ _____    ______ ____

>  <TORSDO>
F 4

$$$$
bgox31_3_ligand
 OpenBabel10092621243D

 18 19  0  0  0  0  0  0  0  0999 V2000
   -1.3280    2.9340  -10.3260 C   0  0  0  0  0  0  0  0  0  0  0  0
   -2.5170    2.3790  -10.7180 C   0  0  0  0  0  3  0  0  0  0  0  0
   -3.0570    1.3090  -10.0140 C   0  0  0  0  0  3  0  0  0  0  0  0
   -2.4570    0.8090   -8.8890 C   0  0  0  0  0  0  0  0  0  0  0  0
   -1.2480    1.4030   -8.4860 C   0  0  0  0  0  0  0  0  0  0  0  0
   -0.6840    2.4180   -9.1770 C   0  0  0  0  0  3  0  0  0  0  0  0
   -1.2480    5.3150  -10.7840 C   0  0  0  0  0  1  0  0  0  0  0  0
   -0.8000    4.0170  -11.0510 O   0  0  0  0  0  0  0  0  0  0  0  0
   -3.0190   -0.3610   -8.1380 C   0  0  0  0  0  0  0  0  0  0  0  0
   -2.3850   -1.4060   -8.0920 O   0  0  0  0  0  0  0  0  0  0  0  0
   -4.3530   -0.3100   -7.4420 C   0  0  0  0  0  0  0  0  0  0  0  0
   -4.8390    0.8960   -7.0080 C   0  0  0  0  0  3  0  0  0  0  0  0
   -6.0430    0.9170   -6.3510 C   0  0  0  0  0  3  0  0  0  0  0  0
   -6.7810   -0.2190   -6.2580 C   0  0  0  0  0  3  0  0  0  0  0  0
   -6.3360   -1.4590   -6.7700 C   0  0  0  0  0  3  0  0  0  0  0  0
   -5.0730   -1.4660   -7.3380 C   0  0  0  0  0  3  0  0  0  0  0  0
   -0.6340    0.8140   -7.3830 O   0  0  0  0  0  0  0  0  0  0  0  0
   -1.1440    0.6770   -6.5460 H   0  0  0  0  0  0  0  0  0  0  0  0
  1  6  1  0  0  0  0
  2  1  2  0  0  0  0
  2  3  1  0  0  0  0
  3  4  2  0  0  0  0
  4  5  1  0  0  0  0
  4  9  1  0  0  0  0
  5 17  1  0  0  0  0
  6  5  2  0  0  0  0
  8  7  1  0  0  0  0
  8  1  1  0  0  0  0
  9 10  2  0  0  0  0
  9 11  1  0  0  0  0
 11 16  2  0  0  0  0
 11 12  1  0  0  0  0
 12 13  2  0  0  0  0
 13 14  1  0  0  0  0
 15 14  2  0  0  0  0
 16 15  1  0  0  0  0
 17 18  1  0  0  0  0
M  END
>  <MODEL>
3

>  <REMARK>
 VINA RESULT:      -4.5     11.257     13.182
  Name = bgox31_3_ligand
  5 active torsions:
  status: ('A' for Active; 'I' for Inactive)
    1  A    between atoms: C_1  and  O_2
    2  A    between atoms: O_2  and  C_3
    3  A    between atoms: C_6  and  C_7
    4  A    between atoms: C_7  and  C_9
    5  A    between atoms: C_15  and  O_16
                            x       y       z     vdW  Elec       q    Type
                         _______ _______ _______ _____ _____    ______ ____

>  <TORSDO>
F 4

$$$$
bgox31_3_ligand
 OpenBabel10092621243D

 18 19  0  0  0  0  0  0  0  0999 V2000
    6.7760    6.5470   -7.7260 C   0  0  0  0  0  0  0  0  0  0  0  0
    6.3390    7.3310   -6.6910 C   0  0  0  0  0  3  0  0  0  0  0  0
    6.7110    7.0380   -5.3840 C   0  0  0  0  0  3  0  0  0  0  0  0
    7.5550    6.0010   -5.0900 C   0  0  0  0  0  0  0  0  0  0  0  0
    8.0130    5.2170   -6.1650 C   0  0  0  0  0  0  0  0  0  0  0  0
    7.6340    5.4610   -7.4390 C   0  0  0  0  0  3  0  0  0  0  0  0
    7.3470    7.3120   -9.9560 C   0  0  0  0  0  1  0  0  0  0  0  0
    6.3890    6.8630   -9.0410 O   0  0  0  0  0  0  0  0  0  0  0  0
    7.9420    5.6600   -3.6810 C   0  0  0  0  0  0  0  0  0  0  0  0
    9.0680    5.9290   -3.2860 O   0  0  0  0  0  0  0  0  0  0  0  0
    6.9980    4.9790   -2.7260 C   0  0  0  0  0  0  0  0  0  0  0  0
    6.6640    5.6030   -1.5520 C   0  0  0  0  0  3  0  0  0  0  0  0
    5.8260    4.9530   -0.6830 C   0  0  0  0  0  3  0  0  0  0  0  0
    5.2480    3.7820   -1.0510 C   0  0  0  0  0  3  0  0  0  0  0  0
    5.5150    3.1590   -2.2920 C   0  0  0  0  0  3  0  0  0  0  0  0
    6.4430    3.7900   -3.1040 C   0  0  0  0  0  3  0  0  0  0  0  0
    8.8070    4.1290   -5.8130 O   0  0  0  0  0  0  0  0  0  0  0  0
    8.7760    3.2980   -6.3520 H   0  0  0  0  0  0  0  0  0  0  0  0
  1  6  2  0  0  0  0
  1  2  1  0  0  0  0
  2  3  2  0  0  0  0
  3  4  1  0  0  0  0
  4  9  1  0  0  0  0
  5 17  1  0  0  0  0
  5  4  2  0  0  0  0
  6  5  1  0  0  0  0
  7  8  1  0  0  0  0
  8  1  1  0  0  0  0
  9 10  2  0  0  0  0
  9 11  1  0  0  0  0
 11 12  1  0  0  0  0
 12 13  2  0  0  0  0
 14 13  1  0  0  0  0
 15 14  2  0  0  0  0
 16 11  2  0  0  0  0
 16 15  1  0  0  0  0
 18 17  1  0  0  0  0
M  END
>  <MODEL>
4

>  <REMARK>
 VINA RESULT:      -4.4      2.970      4.645
  Name = bgox31_3_ligand
  5 active torsions:
  status: ('A' for Active; 'I' for Inactive)
    1  A    between atoms: C_1  and  O_2
    2  A    between atoms: O_2  and  C_3
    3  A    between atoms: C_6  and  C_7
    4  A    between atoms: C_7  and  C_9
    5  A    between atoms: C_15  and  O_16
                            x       y       z     vdW  Elec       q    Type
                         _______ _______ _______ _____ _____    ______ ____

>  <TORSDO>
F 4

$$$$
bgox31_3_ligand
 OpenBabel10092621243D

 18 19  0  0  0  0  0  0  0  0999 V2000
   -5.3290   -1.1280   -7.4800 C   0  0  0  0  0  0  0  0  0  0  0  0
   -5.2580    0.2340   -7.3560 C   0  0  0  0  0  3  0  0  0  0  0  0
   -4.0480    0.8920   -7.5390 C   0  0  0  0  0  3  0  0  0  0  0  0
   -2.9090    0.2220   -7.8940 C   0  0  0  0  0  0  0  0  0  0  0  0
   -3.0010   -1.1750   -8.0390 C   0  0  0  0  0  0  0  0  0  0  0  0
   -4.1580   -1.8400   -7.8280 C   0  0  0  0  0  3  0  0  0  0  0  0
   -7.3770   -1.4170   -6.2110 C   0  0  0  0  0  1  0  0  0  0  0  0
   -6.5650   -1.7750   -7.2920 O   0  0  0  0  0  0  0  0  0  0  0  0
   -1.5920    0.9200   -8.0690 C   0  0  0  0  0  0  0  0  0  0  0  0
   -0.7060    0.7460   -7.2440 O   0  0  0  0  0  0  0  0  0  0  0  0
   -1.3170    1.8490   -9.2210 C   0  0  0  0  0  0  0  0  0  0  0  0
   -2.0320    1.7090  -10.3830 C   0  0  0  0  0  3  0  0  0  0  0  0
   -1.7450    2.5470  -11.4300 C   0  0  0  0  0  3  0  0  0  0  0  0
   -0.8650    3.5660  -11.2590 C   0  0  0  0  0  3  0  0  0  0  0  0
   -0.1750    3.7780  -10.0430 C   0  0  0  0  0  3  0  0  0  0  0  0
   -0.4120    2.8550   -9.0380 C   0  0  0  0  0  3  0  0  0  0  0  0
   -1.8030   -1.8250   -8.3250 O   0  0  0  0  0  0  0  0  0  0  0  0
   -1.7480   -2.8120   -8.2660 H   0  0  0  0  0  0  0  0  0  0  0  0
  1  2  1  0  0  0  0
  1  8  1  0  0  0  0
  3  2  2  0  0  0  0
  4  3  1  0  0  0  0
  5  4  2  0  0  0  0
  5  6  1  0  0  0  0
  6  1  2  0  0  0  0
  8  7  1  0  0  0  0
  9  4  1  0  0  0  0
  9 10  2  0  0  0  0
 11 16  1  0  0  0  0
 11  9  1  0  0  0  0
 12 11  2  0  0  0  0
 13 14  2  0  0  0  0
 13 12  1  0  0  0  0
 14 15  1  0  0  0  0
 15 16  2  0  0  0  0
 17 18  1  0  0  0  0
 17  5  1  0  0  0  0
M  END
>  <MODEL>
5

>  <REMARK>
 VINA RESULT:      -4.4     11.018     13.492
  Name = bgox31_3_ligand
  5 active torsions:
  status: ('A' for Active; 'I' for Inactive)
    1  A    between atoms: C_1  and  O_2
    2  A    between atoms: O_2  and  C_3
    3  A    between atoms: C_6  and  C_7
    4  A    between atoms: C_7  and  C_9
    5  A    between atoms: C_15  and  O_16
                            x       y       z     vdW  Elec       q    Type
                         _______ _______ _______ _____ _____    ______ ____

>  <TORSDO>
F 4

$$$$
bgox31_3_ligand
 OpenBabel10092621243D

 18 19  0  0  0  0  0  0  0  0999 V2000
    6.9090    8.0170   -4.8200 C   0  0  0  0  0  0  0  0  0  0  0  0
    7.6910    7.2030   -4.0440 C   0  0  0  0  0  3  0  0  0  0  0  0
    7.9750    5.9060   -4.4560 C   0  0  0  0  0  3  0  0  0  0  0  0
    7.5350    5.4170   -5.6570 C   0  0  0  0  0  0  0  0  0  0  0  0
    6.7510    6.2720   -6.4520 C   0  0  0  0  0  0  0  0  0  0  0  0
    6.4300    7.5230   -6.0550 C   0  0  0  0  0  3  0  0  0  0  0  0
    5.7490    9.5340   -3.3230 C   0  0  0  0  0  1  0  0  0  0  0  0
    6.6340    9.3270   -4.3860 O   0  0  0  0  0  0  0  0  0  0  0  0
    7.8150    4.0110   -6.0980 C   0  0  0  0  0  0  0  0  0  0  0  0
    8.3460    3.8160   -7.1820 O   0  0  0  0  0  0  0  0  0  0  0  0
    7.4530    2.8130   -5.2600 C   0  0  0  0  0  0  0  0  0  0  0  0
    6.2690    2.8110   -4.5680 C   0  0  0  0  0  3  0  0  0  0  0  0
    5.9720    1.7230   -3.7880 C   0  0  0  0  0  3  0  0  0  0  0  0
    6.7770    0.6310   -3.8160 C   0  0  0  0  0  3  0  0  0  0  0  0
    7.9620    0.5810   -4.5860 C   0  0  0  0  0  3  0  0  0  0  0  0
    8.2860    1.7320   -5.2830 C   0  0  0  0  0  3  0  0  0  0  0  0
    6.2610    5.7090   -7.6280 O   0  0  0  0  0  0  0  0  0  0  0  0
    5.3110    5.8320   -7.8780 H   0  0  0  0  0  0  0  0  0  0  0  0
  1  8  1  0  0  0  0
  1  2  1  0  0  0  0
  3  2  2  0  0  0  0
  4  3  1  0  0  0  0
  5  6  1  0  0  0  0
  5  4  2  0  0  0  0
  6  1  2  0  0  0  0
  8  7  1  0  0  0  0
  9  4  1  0  0  0  0
  9 11  1  0  0  0  0
 10  9  2  0  0  0  0
 11 12  1  0  0  0  0
 12 13  2  0  0  0  0
 14 13  1  0  0  0  0
 15 14  2  0  0  0  0
 16 11  2  0  0  0  0
 16 15  1  0  0  0  0
 17  5  1  0  0  0  0
 18 17  1  0  0  0  0
M  END
>  <MODEL>
6

>  <REMARK>
 VINA RESULT:      -4.3      4.315      6.093
  Name = bgox31_3_ligand
  5 active torsions:
  status: ('A' for Active; 'I' for Inactive)
    1  A    between atoms: C_1  and  O_2
    2  A    between atoms: O_2  and  C_3
    3  A    between atoms: C_6  and  C_7
    4  A    between atoms: C_7  and  C_9
    5  A    between atoms: C_15  and  O_16
                            x       y       z     vdW  Elec       q    Type
                         _______ _______ _______ _____ _____    ______ ____

>  <TORSDO>
F 4

$$$$
bgox31_3_ligand
 OpenBabel10092621243D

 18 19  0  0  0  0  0  0  0  0999 V2000
    9.3760   -3.6010   -0.6600 C   0  0  0  0  0  0  0  0  0  0  0  0
    8.6030   -3.7260   -1.7840 C   0  0  0  0  0  3  0  0  0  0  0  0
    8.7260   -2.8120   -2.8240 C   0  0  0  0  0  3  0  0  0  0  0  0
    9.6450   -1.7980   -2.7880 C   0  0  0  0  0  0  0  0  0  0  0  0
   10.4470   -1.6950   -1.6370 C   0  0  0  0  0  0  0  0  0  0  0  0
   10.3180   -2.5480   -0.5970 C   0  0  0  0  0  3  0  0  0  0  0  0
   10.3670   -4.9600    1.0900 C   0  0  0  0  0  1  0  0  0  0  0  0
    9.2370   -4.5380    0.3810 O   0  0  0  0  0  0  0  0  0  0  0  0
    9.7680   -0.7920   -3.8940 C   0  0  0  0  0  0  0  0  0  0  0  0
   10.8180   -0.7050   -4.5130 O   0  0  0  0  0  0  0  0  0  0  0  0
    8.6440    0.1390   -4.2680 C   0  0  0  0  0  0  0  0  0  0  0  0
    7.4270    0.0040   -3.6530 C   0  0  0  0  0  3  0  0  0  0  0  0
    6.4090    0.8430   -4.0290 C   0  0  0  0  0  3  0  0  0  0  0  0
    6.6560    1.8580   -4.8940 C   0  0  0  0  0  3  0  0  0  0  0  0
    7.9260    2.0660   -5.4810 C   0  0  0  0  0  3  0  0  0  0  0  0
    8.9050    1.1420   -5.1580 C   0  0  0  0  0  3  0  0  0  0  0  0
   11.3130   -0.6040   -1.6100 O   0  0  0  0  0  0  0  0  0  0  0  0
   12.0470   -0.5380   -2.2710 H   0  0  0  0  0  0  0  0  0  0  0  0
  1  6  1  0  0  0  0
  1  8  1  0  0  0  0
  2  1  2  0  0  0  0
  3  4  2  0  0  0  0
  3  2  1  0  0  0  0
  4  5  1  0  0  0  0
  5 17  1  0  0  0  0
  5  6  2  0  0  0  0
  8  7  1  0  0  0  0
  9  4  1  0  0  0  0
 10  9  2  0  0  0  0
 11  9  1  0  0  0  0
 11 12  1  0  0  0  0
 13 12  2  0  0  0  0
 14 13  1  0  0  0  0
 15 16  1  0  0  0  0
 15 14  2  0  0  0  0
 16 11  2  0  0  0  0
 18 17  1  0  0  0  0
M  END
>  <MODEL>
7

>  <REMARK>
 VINA RESULT:      -4.2      5.602      7.873
  Name = bgox31_3_ligand
  5 active torsions:
  status: ('A' for Active; 'I' for Inactive)
    1  A    between atoms: C_1  and  O_2
    2  A    between atoms: O_2  and  C_3
    3  A    between atoms: C_6  and  C_7
    4  A    between atoms: C_7  and  C_9
    5  A    between atoms: C_15  and  O_16
                            x       y       z     vdW  Elec       q    Type
                         _______ _______ _______ _____ _____    ______ ____

>  <TORSDO>
F 4

$$$$
bgox31_3_ligand
 OpenBabel10092621243D

 18 19  0  0  0  0  0  0  0  0999 V2000
    7.2560    4.2240   -4.7010 C   0  0  0  0  0  0  0  0  0  0  0  0
    7.7130    5.3530   -4.0730 C   0  0  0  0  0  3  0  0  0  0  0  0
    7.3530    5.6150   -2.7560 C   0  0  0  0  0  3  0  0  0  0  0  0
    6.5840    4.7450   -2.0310 C   0  0  0  0  0  0  0  0  0  0  0  0
    6.1400    3.5790   -2.6830 C   0  0  0  0  0  0  0  0  0  0  0  0
    6.4450    3.3230   -3.9740 C   0  0  0  0  0  3  0  0  0  0  0  0
    8.4730    2.8970   -6.3280 C   0  0  0  0  0  1  0  0  0  0  0  0
    7.6340    3.9770   -6.0340 O   0  0  0  0  0  0  0  0  0  0  0  0
    6.1690    5.0310   -0.6180 C   0  0  0  0  0  0  0  0  0  0  0  0
    5.1980    5.7440   -0.4100 O   0  0  0  0  0  0  0  0  0  0  0  0
    6.9160    4.4840    0.5700 C   0  0  0  0  0  0  0  0  0  0  0  0
    8.1760    4.9490    0.8420 C   0  0  0  0  0  3  0  0  0  0  0  0
    8.8510    4.4180    1.9110 C   0  0  0  0  0  3  0  0  0  0  0  0
    8.2210    3.5510    2.7440 C   0  0  0  0  0  3  0  0  0  0  0  0
    6.8920    3.1190    2.5280 C   0  0  0  0  0  3  0  0  0  0  0  0
    6.2740    3.5960    1.3840 C   0  0  0  0  0  3  0  0  0  0  0  0
    5.2980    2.7620   -1.9340 O   0  0  0  0  0  0  0  0  0  0  0  0
    5.5730    2.4600   -1.0320 H   0  0  0  0  0  0  0  0  0  0  0  0
  1  2  2  0  0  0  0
  1  6  1  0  0  0  0
  2  3  1  0  0  0  0
  3  4  2  0  0  0  0
  4  9  1  0  0  0  0
  5  4  1  0  0  0  0
  5 17  1  0  0  0  0
  6  5  2  0  0  0  0
  7  8  1  0  0  0  0
  8  1  1  0  0  0  0
  9 10  2  0  0  0  0
  9 11  1  0  0  0  0
 11 12  2  0  0  0  0
 11 16  1  0  0  0  0
 12 13  1  0  0  0  0
 13 14  2  0  0  0  0
 15 14  1  0  0  0  0
 16 15  2  0  0  0  0
 17 18  1  0  0  0  0
M  END
>  <MODEL>
8

>  <REMARK>
 VINA RESULT:      -4.2      1.176      2.114
  Name = bgox31_3_ligand
  5 active torsions:
  status: ('A' for Active; 'I' for Inactive)
    1  A    between atoms: C_1  and  O_2
    2  A    between atoms: O_2  and  C_3
    3  A    between atoms: C_6  and  C_7
    4  A    between atoms: C_7  and  C_9
    5  A    between atoms: C_15  and  O_16
                            x       y       z     vdW  Elec       q    Type
                         _______ _______ _______ _____ _____    ______ ____

>  <TORSDO>
F 4

$$$$
bgox31_3_ligand
 OpenBabel10092621243D

 18 19  0  0  0  0  0  0  0  0999 V2000
   -3.7180   -6.0850   -4.1750 C   0  0  0  0  0  0  0  0  0  0  0  0
   -4.8470   -5.5670   -4.7550 C   0  0  0  0  0  3  0  0  0  0  0  0
   -4.7630   -4.8860   -5.9630 C   0  0  0  0  0  3  0  0  0  0  0  0
   -3.5780   -4.7520   -6.6350 C   0  0  0  0  0  0  0  0  0  0  0  0
   -2.4310   -5.3070   -6.0380 C   0  0  0  0  0  0  0  0  0  0  0  0
   -2.4820   -5.9400   -4.8450 C   0  0  0  0  0  3  0  0  0  0  0  0
   -4.9530   -7.5610   -2.6960 C   0  0  0  0  0  1  0  0  0  0  0  0
   -3.8250   -6.7730   -2.9520 O   0  0  0  0  0  0  0  0  0  0  0  0
   -3.4730   -3.9960   -7.9270 C   0  0  0  0  0  0  0  0  0  0  0  0
   -3.3710   -4.6140   -8.9770 O   0  0  0  0  0  0  0  0  0  0  0  0
   -3.4720   -2.4910   -7.9850 C   0  0  0  0  0  0  0  0  0  0  0  0
   -4.5580   -1.8000   -7.5150 C   0  0  0  0  0  3  0  0  0  0  0  0
   -4.5490   -0.4310   -7.6040 C   0  0  0  0  0  3  0  0  0  0  0  0
   -3.4310    0.2100   -8.0290 C   0  0  0  0  0  3  0  0  0  0  0  0
   -2.2690   -0.4800   -8.4430 C   0  0  0  0  0  3  0  0  0  0  0  0
   -2.3460   -1.8630   -8.4360 C   0  0  0  0  0  3  0  0  0  0  0  0
   -1.2370   -5.0800   -6.7170 O   0  0  0  0  0  0  0  0  0  0  0  0
   -0.9700   -5.6760   -7.4620 H   0  0  0  0  0  0  0  0  0  0  0  0
  1  8  1  0  0  0  0
  2  1  1  0  0  0  0
  3  2  2  0  0  0  0
  4  5  2  0  0  0  0
  4  3  1  0  0  0  0
  5  6  1  0  0  0  0
  6  1  2  0  0  0  0
  8  7  1  0  0  0  0
  9  4  1  0  0  0  0
 10  9  2  0  0  0  0
 11  9  1  0  0  0  0
 11 12  1  0  0  0  0
 13 12  2  0  0  0  0
 14 13  1  0  0  0  0
 15 16  1  0  0  0  0
 15 14  2  0  0  0  0
 16 11  2  0  0  0  0
 17  5  1  0  0  0  0
 18 17  1  0  0  0  0
M  END
>  <MODEL>
9

>  <REMARK>
 VINA RESULT:      -4.1     12.981     14.894
  Name = bgox31_3_ligand
  5 active torsions:
  status: ('A' for Active; 'I' for Inactive)
    1  A    between atoms: C_1  and  O_2
    2  A    between atoms: O_2  and  C_3
    3  A    between atoms: C_6  and  C_7
    4  A    between atoms: C_7  and  C_9
    5  A    between atoms: C_15  and  O_16
                            x       y       z     vdW  Elec       q    Type
                         _______ _______ _______ _____ _____    ______ ____

>  <TORSDO>
F 4

$$$$
