bgox31_3_ligand
     RDKit          3D

 29 30  0  0  0  0  0  0  0  0999 V2000
   -8.0455    2.6427    1.8523 C   0  0  0  0  0  0  0  0  0  0  0  0
   -6.7625    2.5939    1.2958 O   0  0  0  0  0  0  0  0  0  0  0  0
   -5.6399    2.8262    2.1114 C   0  0  0  0  0  0  0  0  0  0  0  0
   -4.4157    3.0217    1.5285 C   0  0  0  0  0  0  0  0  0  0  0  0
   -3.2929    3.2505    2.3159 C   0  0  0  0  0  0  0  0  0  0  0  0
   -3.3565    3.2388    3.6826 C   0  0  0  0  0  0  0  0  0  0  0  0
   -2.1560    3.5103    4.5409 C   0  0  0  0  0  0  0  0  0  0  0  0
   -2.2742    4.2123    5.5351 O   0  0  0  0  0  0  0  0  0  0  0  0
   -0.7914    2.9627    4.2177 C   0  0  0  0  0  0  0  0  0  0  0  0
    0.3079    3.7670    4.3677 C   0  0  0  0  0  0  0  0  0  0  0  0
    1.5392    3.2582    4.0399 C   0  0  0  0  0  0  0  0  0  0  0  0
    1.6605    1.9491    3.7041 C   0  0  0  0  0  0  0  0  0  0  0  0
    0.5490    1.0796    3.6210 C   0  0  0  0  0  0  0  0  0  0  0  0
   -0.6901    1.6486    3.8592 C   0  0  0  0  0  0  0  0  0  0  0  0
   -4.6162    3.0152    4.2686 C   0  0  0  0  0  0  0  0  0  0  0  0
   -4.6489    3.0890    5.6587 O   0  0  0  0  0  0  0  0  0  0  0  0
   -5.7271    2.8290    3.5227 C   0  0  0  0  0  0  0  0  0  0  0  0
   -7.9773    2.9587    2.9037 H   0  0  0  0  0  0  0  0  0  0  0  0
   -8.6608    3.3622    1.2924 H   0  0  0  0  0  0  0  0  0  0  0  0
   -8.5067    1.6455    1.7983 H   0  0  0  0  0  0  0  0  0  0  0  0
   -4.3205    2.9975    0.4329 H   0  0  0  0  0  0  0  0  0  0  0  0
   -2.3273    3.4463    1.8269 H   0  0  0  0  0  0  0  0  0  0  0  0
    0.2056    4.7963    4.7420 H   0  0  0  0  0  0  0  0  0  0  0  0
    2.4256    3.9096    4.0493 H   0  0  0  0  0  0  0  0  0  0  0  0
    2.6621    1.5490    3.4883 H   0  0  0  0  0  0  0  0  0  0  0  0
    0.6624    0.0121    3.3806 H   0  0  0  0  0  0  0  0  0  0  0  0
   -1.5997    1.0381    3.7590 H   0  0  0  0  0  0  0  0  0  0  0  0
   -5.5004    2.9429    6.1423 H   0  0  0  0  0  0  0  0  0  0  0  0
   -6.7000    2.6794    4.0136 H   0  0  0  0  0  0  0  0  0  0  0  0
  2  1  1  0
  3  2  1  0
  4  3  1  0
  5  4  2  0
  6  5  1  0
  7  6  1  0
  8  7  2  0
  9  7  1  0
 10  9  2  0
 11 10  1  0
 12 11  2  0
 13 12  1  0
 14 13  2  0
 14  9  1  0
 15  6  2  0
 16 15  1  0
 17 15  1  0
 17  3  2  0
  1 18  1  0
  1 19  1  0
  1 20  1  0
  4 21  1  0
  5 22  1  0
 10 23  1  0
 11 24  1  0
 12 25  1  0
 13 26  1  0
 14 27  1  0
 16 28  1  0
 17 29  1  0
M  END
$$$$
