bgox31_3_ligand
 OpenBabel10092621243D

 18 19  0  0  0  0  0  0  0  0999 V2000
   -4.6530   -4.3640   -5.6150 C   0  0  0  0  0  0  0  0  0  0  0  0
   -3.5740   -4.9550   -5.0130 C   0  0  0  0  0  3  0  0  0  0  0  0
   -2.3020   -4.4130   -5.1670 C   0  0  0  0  0  3  0  0  0  0  0  0
   -2.0900   -3.2590   -5.8720 C   0  0  0  0  0  0  0  0  0  0  0  0
   -3.2100   -2.6510   -6.4670 C   0  0  0  0  0  0  0  0  0  0  0  0
   -4.4490   -3.1810   -6.3630 C   0  0  0  0  0  3  0  0  0  0  0  0
   -6.2190   -6.1760   -6.0060 C   0  0  0  0  0  1  0  0  0  0  0  0
   -5.9310   -4.9270   -5.4450 O   0  0  0  0  0  0  0  0  0  0  0  0
   -0.7190   -2.6810   -6.0640 C   0  0  0  0  0  0  0  0  0  0  0  0
   -0.3650   -2.3330   -7.1820 O   0  0  0  0  0  0  0  0  0  0  0  0
    0.2600   -2.5250   -4.9310 C   0  0  0  0  0  0  0  0  0  0  0  0
    1.2760   -3.4330   -4.7900 C   0  0  0  0  0  3  0  0  0  0  0  0
    2.1390   -3.2890   -3.7340 C   0  0  0  0  0  3  0  0  0  0  0  0
    2.0520   -2.1950   -2.9350 C   0  0  0  0  0  3  0  0  0  0  0  0
    1.0600   -1.2040   -3.1110 C   0  0  0  0  0  3  0  0  0  0  0  0
    0.1430   -1.4300   -4.1230 C   0  0  0  0  0  3  0  0  0  0  0  0
   -2.9380   -1.5250   -7.2390 O   0  0  0  0  0  0  0  0  0  0  0  0
   -3.0290   -0.6220   -6.8450 H   0  0  0  0  0  0  0  0  0  0  0  0
  1  8  1  0  0  0  0
  1  2  1  0  0  0  0
  3  2  2  0  0  0  0
  4  3  1  0  0  0  0
  5  6  1  0  0  0  0
  5  4  2  0  0  0  0
  6  1  2  0  0  0  0
  7  8  1  0  0  0  0
  9  4  1  0  0  0  0
  9 11  1  0  0  0  0
 10  9  2  0  0  0  0
 11 12  2  0  0  0  0
 11 16  1  0  0  0  0
 12 13  1  0  0  0  0
 13 14  2  0  0  0  0
 15 14  1  0  0  0  0
 16 15  2  0  0  0  0
 17 18  1  0  0  0  0
 17  5  1  0  0  0  0
M  END
>  <MODEL>
1

>  <REMARK>
 VINA RESULT:      -5.3      0.000      0.000
  Name = bgox31_3_ligand
  5 active torsions:
  status: ('A' for Active; 'I' for Inactive)
    1  A    between atoms: C_1  and  O_2
    2  A    between atoms: O_2  and  C_3
    3  A    between atoms: C_6  and  C_7
    4  A    between atoms: C_7  and  C_9
    5  A    between atoms: C_15  and  O_16
                            x       y       z     vdW  Elec       q    Type
                         _______ _______ _______ _____ _____    ______ ____

>  <TORSDO>
F 4

$$$$
bgox31_3_ligand
 OpenBabel10092621243D

 18 19  0  0  0  0  0  0  0  0999 V2000
    3.5890   -3.2630   -6.6450 C   0  0  0  0  0  0  0  0  0  0  0  0
    2.6060   -2.8880   -7.5220 C   0  0  0  0  0  3  0  0  0  0  0  0
    1.3560   -2.5010   -7.0490 C   0  0  0  0  0  3  0  0  0  0  0  0
    1.0810   -2.4330   -5.7110 C   0  0  0  0  0  0  0  0  0  0  0  0
    2.1060   -2.8000   -4.8210 C   0  0  0  0  0  0  0  0  0  0  0  0
    3.3150   -3.2160   -5.2580 C   0  0  0  0  0  3  0  0  0  0  0  0
    5.3430   -4.9260   -6.8640 C   0  0  0  0  0  1  0  0  0  0  0  0
    4.8470   -3.6480   -7.1430 O   0  0  0  0  0  0  0  0  0  0  0  0
   -0.2720   -2.0420   -5.1920 C   0  0  0  0  0  0  0  0  0  0  0  0
   -0.3680   -1.1130   -4.4040 O   0  0  0  0  0  0  0  0  0  0  0  0
   -1.5310   -2.7650   -5.5920 C   0  0  0  0  0  0  0  0  0  0  0  0
   -1.8640   -3.9340   -4.9610 C   0  0  0  0  0  3  0  0  0  0  0  0
   -3.0000   -4.5920   -5.3600 C   0  0  0  0  0  3  0  0  0  0  0  0
   -3.8300   -4.0160   -6.2660 C   0  0  0  0  0  3  0  0  0  0  0  0
   -3.5460   -2.7700   -6.8710 C   0  0  0  0  0  3  0  0  0  0  0  0
   -2.3430   -2.1810   -6.5220 C   0  0  0  0  0  3  0  0  0  0  0  0
    1.7580   -2.7910   -3.4730 O   0  0  0  0  0  0  0  0  0  0  0  0
    2.3560   -3.2100   -2.8050 H   0  0  0  0  0  0  0  0  0  0  0  0
  1  6  1  0  0  0  0
  2  3  1  0  0  0  0
  2  1  2  0  0  0  0
  3  4  2  0  0  0  0
  4  9  1  0  0  0  0
  4  5  1  0  0  0  0
  5 17  1  0  0  0  0
  6  5  2  0  0  0  0
  8  7  1  0  0  0  0
  8  1  1  0  0  0  0
  9 10  2  0  0  0  0
 11  9  1  0  0  0  0
 11 12  1  0  0  0  0
 13 12  2  0  0  0  0
 14 13  1  0  0  0  0
 15 16  1  0  0  0  0
 15 14  2  0  0  0  0
 16 11  2  0  0  0  0
 17 18  1  0  0  0  0
M  END
>  <MODEL>
2

>  <REMARK>
 VINA RESULT:      -4.9      2.586      6.379
  Name = bgox31_3_ligand
  5 active torsions:
  status: ('A' for Active; 'I' for Inactive)
    1  A    between atoms: C_1  and  O_2
    2  A    between atoms: O_2  and  C_3
    3  A    between atoms: C_6  and  C_7
    4  A    between atoms: C_7  and  C_9
    5  A    between atoms: C_15  and  O_16
                            x       y       z     vdW  Elec       q    Type
                         _______ _______ _______ _____ _____    ______ ____

>  <TORSDO>
F 4

$$$$
bgox31_3_ligand
 OpenBabel10092621243D

 18 19  0  0  0  0  0  0  0  0999 V2000
    4.8400   -0.2130   -3.0780 C   0  0  0  0  0  0  0  0  0  0  0  0
    3.5170   -0.0320   -2.7720 C   0  0  0  0  0  3  0  0  0  0  0  0
    2.5750   -0.9860   -3.1420 C   0  0  0  0  0  3  0  0  0  0  0  0
    2.9340   -2.1480   -3.7700 C   0  0  0  0  0  0  0  0  0  0  0  0
    4.2990   -2.3310   -4.0590 C   0  0  0  0  0  0  0  0  0  0  0  0
    5.2260   -1.4000   -3.7440 C   0  0  0  0  0  3  0  0  0  0  0  0
    5.4040    2.1110   -2.6700 C   0  0  0  0  0  1  0  0  0  0  0  0
    5.7770    0.7630   -2.6930 O   0  0  0  0  0  0  0  0  0  0  0  0
    1.9220   -3.1710   -4.1960 C   0  0  0  0  0  0  0  0  0  0  0  0
    1.9580   -4.2910   -3.7060 O   0  0  0  0  0  0  0  0  0  0  0  0
    0.8630   -2.8820   -5.2250 C   0  0  0  0  0  0  0  0  0  0  0  0
    1.2370   -2.4760   -6.4790 C   0  0  0  0  0  3  0  0  0  0  0  0
    0.2540   -2.1900   -7.3930 C   0  0  0  0  0  3  0  0  0  0  0  0
   -1.0450   -2.4340   -7.0870 C   0  0  0  0  0  3  0  0  0  0  0  0
   -1.4470   -2.9300   -5.8250 C   0  0  0  0  0  3  0  0  0  0  0  0
   -0.4420   -3.1120   -4.8920 C   0  0  0  0  0  3  0  0  0  0  0  0
    4.6080   -3.4890   -4.7670 O   0  0  0  0  0  0  0  0  0  0  0  0
    3.9090   -4.1690   -4.9330 H   0  0  0  0  0  0  0  0  0  0  0  0
  1  2  1  0  0  0  0
  1  8  1  0  0  0  0
  3  2  2  0  0  0  0
  4  3  1  0  0  0  0
  5  4  2  0  0  0  0
  5  6  1  0  0  0  0
  6  1  2  0  0  0  0
  8  7  1  0  0  0  0
  9  4  1  0  0  0  0
  9 10  2  0  0  0  0
 11 16  1  0  0  0  0
 11  9  1  0  0  0  0
 12 11  2  0  0  0  0
 13 14  2  0  0  0  0
 13 12  1  0  0  0  0
 14 15  1  0  0  0  0
 15 16  2  0  0  0  0
 17  5  1  0  0  0  0
 18 17  1  0  0  0  0
M  END
>  <MODEL>
3

>  <REMARK>
 VINA RESULT:      -4.8      3.537      7.633
  Name = bgox31_3_ligand
  5 active torsions:
  status: ('A' for Active; 'I' for Inactive)
    1  A    between atoms: C_1  and  O_2
    2  A    between atoms: O_2  and  C_3
    3  A    between atoms: C_6  and  C_7
    4  A    between atoms: C_7  and  C_9
    5  A    between atoms: C_15  and  O_16
                            x       y       z     vdW  Elec       q    Type
                         _______ _______ _______ _____ _____    ______ ____

>  <TORSDO>
F 4

$$$$
bgox31_3_ligand
 OpenBabel10092621243D

 18 19  0  0  0  0  0  0  0  0999 V2000
    5.0600   -5.0720   -3.7140 C   0  0  0  0  0  0  0  0  0  0  0  0
    3.8020   -5.5340   -3.4300 C   0  0  0  0  0  3  0  0  0  0  0  0
    2.7030   -4.6870   -3.5350 C   0  0  0  0  0  3  0  0  0  0  0  0
    2.8280   -3.3950   -3.9690 C   0  0  0  0  0  0  0  0  0  0  0  0
    4.1220   -2.9400   -4.2780 C   0  0  0  0  0  0  0  0  0  0  0  0
    5.2080   -3.7330   -4.1460 C   0  0  0  0  0  3  0  0  0  0  0  0
    6.4080   -6.5930   -2.3890 C   0  0  0  0  0  1  0  0  0  0  0  0
    6.1570   -5.9450   -3.6030 O   0  0  0  0  0  0  0  0  0  0  0  0
    1.6530   -2.4670   -4.0620 C   0  0  0  0  0  0  0  0  0  0  0  0
    1.4670   -1.6430   -3.1780 O   0  0  0  0  0  0  0  0  0  0  0  0
    0.6690   -2.5180   -5.2010 C   0  0  0  0  0  0  0  0  0  0  0  0
   -0.6500   -2.7760   -4.9380 C   0  0  0  0  0  3  0  0  0  0  0  0
   -1.5240   -2.8470   -5.9940 C   0  0  0  0  0  3  0  0  0  0  0  0
   -1.0990   -2.5370   -7.2450 C   0  0  0  0  0  3  0  0  0  0  0  0
    0.2420   -2.1890   -7.5260 C   0  0  0  0  0  3  0  0  0  0  0  0
    1.1200   -2.2250   -6.4560 C   0  0  0  0  0  3  0  0  0  0  0  0
    4.2120   -1.5980   -4.6400 O   0  0  0  0  0  0  0  0  0  0  0  0
    5.0510   -1.0980   -4.4810 H   0  0  0  0  0  0  0  0  0  0  0  0
  1  8  1  0  0  0  0
  1  2  1  0  0  0  0
  3  2  2  0  0  0  0
  4  3  1  0  0  0  0
  5  6  1  0  0  0  0
  5  4  2  0  0  0  0
  6  1  2  0  0  0  0
  8  7  1  0  0  0  0
  9  4  1  0  0  0  0
  9 10  2  0  0  0  0
 11 12  1  0  0  0  0
 11  9  1  0  0  0  0
 13 12  2  0  0  0  0
 14 13  1  0  0  0  0
 15 14  2  0  0  0  0
 15 16  1  0  0  0  0
 16 11  2  0  0  0  0
 17 18  1  0  0  0  0
 17  5  1  0  0  0  0
M  END
>  <MODEL>
4

>  <REMARK>
 VINA RESULT:      -4.7      3.493      7.108
  Name = bgox31_3_ligand
  5 active torsions:
  status: ('A' for Active; 'I' for Inactive)
    1  A    between atoms: C_1  and  O_2
    2  A    between atoms: O_2  and  C_3
    3  A    between atoms: C_6  and  C_7
    4  A    between atoms: C_7  and  C_9
    5  A    between atoms: C_15  and  O_16
                            x       y       z     vdW  Elec       q    Type
                         _______ _______ _______ _____ _____    ______ ____

>  <TORSDO>
F 4

$$$$
bgox31_3_ligand
 OpenBabel10092621243D

 18 19  0  0  0  0  0  0  0  0999 V2000
    5.5470   -4.7910   -4.0160 C   0  0  0  0  0  0  0  0  0  0  0  0
    5.5450   -3.4400   -4.2440 C   0  0  0  0  0  3  0  0  0  0  0  0
    4.3490   -2.7300   -4.2370 C   0  0  0  0  0  3  0  0  0  0  0  0
    3.1530   -3.3350   -3.9560 C   0  0  0  0  0  0  0  0  0  0  0  0
    3.1730   -4.7180   -3.7020 C   0  0  0  0  0  0  0  0  0  0  0  0
    4.3170   -5.4350   -3.7420 C   0  0  0  0  0  3  0  0  0  0  0  0
    6.9950   -6.5030   -3.0880 C   0  0  0  0  0  1  0  0  0  0  0  0
    6.7680   -5.4900   -4.0260 O   0  0  0  0  0  0  0  0  0  0  0  0
    1.8550   -2.5820   -3.9700 C   0  0  0  0  0  0  0  0  0  0  0  0
    1.4730   -2.0240   -2.9520 O   0  0  0  0  0  0  0  0  0  0  0  0
    0.9830   -2.4970   -5.1950 C   0  0  0  0  0  0  0  0  0  0  0  0
    1.5650   -2.3380   -6.4250 C   0  0  0  0  0  3  0  0  0  0  0  0
    0.7500   -2.2340   -7.5240 C   0  0  0  0  0  3  0  0  0  0  0  0
   -0.5880   -2.4190   -7.3930 C   0  0  0  0  0  3  0  0  0  0  0  0
   -1.2010   -2.6650   -6.1430 C   0  0  0  0  0  3  0  0  0  0  0  0
   -0.3640   -2.6630   -5.0410 C   0  0  0  0  0  3  0  0  0  0  0  0
    1.9260   -5.3050   -3.4980 O   0  0  0  0  0  0  0  0  0  0  0  0
    1.8640   -6.2640   -3.2620 H   0  0  0  0  0  0  0  0  0  0  0  0
  1  6  1  0  0  0  0
  2  3  1  0  0  0  0
  2  1  2  0  0  0  0
  3  4  2  0  0  0  0
  4  5  1  0  0  0  0
  5 17  1  0  0  0  0
  6  5  2  0  0  0  0
  8  1  1  0  0  0  0
  8  7  1  0  0  0  0
  9  4  1  0  0  0  0
  9 10  2  0  0  0  0
 11 16  1  0  0  0  0
 11  9  1  0  0  0  0
 12 11  2  0  0  0  0
 13 14  2  0  0  0  0
 13 12  1  0  0  0  0
 14 15  1  0  0  0  0
 15 16  2  0  0  0  0
 17 18  1  0  0  0  0
M  END
>  <MODEL>
5

>  <REMARK>
 VINA RESULT:      -4.7      3.605      7.326
  Name = bgox31_3_ligand
  5 active torsions:
  status: ('A' for Active; 'I' for Inactive)
    1  A    between atoms: C_1  and  O_2
    2  A    between atoms: O_2  and  C_3
    3  A    between atoms: C_6  and  C_7
    4  A    between atoms: C_7  and  C_9
    5  A    between atoms: C_15  and  O_16
                            x       y       z     vdW  Elec       q    Type
                         _______ _______ _______ _____ _____    ______ ____

>  <TORSDO>
F 4

$$$$
bgox31_3_ligand
 OpenBabel10092621243D

 18 19  0  0  0  0  0  0  0  0999 V2000
   -4.4370   -4.4280   -6.8100 C   0  0  0  0  0  0  0  0  0  0  0  0
   -3.9910   -3.3400   -7.5130 C   0  0  0  0  0  3  0  0  0  0  0  0
   -2.8900   -2.6190   -7.0650 C   0  0  0  0  0  3  0  0  0  0  0  0
   -2.1890   -2.9920   -5.9500 C   0  0  0  0  0  0  0  0  0  0  0  0
   -2.6440   -4.1230   -5.2490 C   0  0  0  0  0  0  0  0  0  0  0  0
   -3.7350   -4.8160   -5.6440 C   0  0  0  0  0  3  0  0  0  0  0  0
   -6.5900   -5.4690   -6.4020 C   0  0  0  0  0  1  0  0  0  0  0  0
   -5.5510   -5.1450   -7.2810 O   0  0  0  0  0  0  0  0  0  0  0  0
   -1.0150   -2.2050   -5.4440 C   0  0  0  0  0  0  0  0  0  0  0  0
   -1.2020   -1.2730   -4.6750 O   0  0  0  0  0  0  0  0  0  0  0  0
    0.4000   -2.5060   -5.8610 C   0  0  0  0  0  0  0  0  0  0  0  0
    0.7790   -2.2880   -7.1590 C   0  0  0  0  0  3  0  0  0  0  0  0
    2.0650   -2.5960   -7.5250 C   0  0  0  0  0  3  0  0  0  0  0  0
    2.9610   -2.9820   -6.5820 C   0  0  0  0  0  3  0  0  0  0  0  0
    2.6110   -3.1370   -5.2210 C   0  0  0  0  0  3  0  0  0  0  0  0
    1.2830   -2.9160   -4.9030 C   0  0  0  0  0  3  0  0  0  0  0  0
   -1.9500   -4.4200   -4.0790 O   0  0  0  0  0  0  0  0  0  0  0  0
   -2.1350   -5.2620   -3.5940 H   0  0  0  0  0  0  0  0  0  0  0  0
  1  6  1  0  0  0  0
  2  3  1  0  0  0  0
  2  1  2  0  0  0  0
  3  4  2  0  0  0  0
  4  9  1  0  0  0  0
  4  5  1  0  0  0  0
  5 17  1  0  0  0  0
  6  5  2  0  0  0  0
  8  1  1  0  0  0  0
  8  7  1  0  0  0  0
  9 10  2  0  0  0  0
 11  9  1  0  0  0  0
 11 16  1  0  0  0  0
 12 11  2  0  0  0  0
 13 12  1  0  0  0  0
 13 14  2  0  0  0  0
 14 15  1  0  0  0  0
 15 16  2  0  0  0  0
 17 18  1  0  0  0  0
M  END
>  <MODEL>
6

>  <REMARK>
 VINA RESULT:      -4.6      1.811      2.547
  Name = bgox31_3_ligand
  5 active torsions:
  status: ('A' for Active; 'I' for Inactive)
    1  A    between atoms: C_1  and  O_2
    2  A    between atoms: O_2  and  C_3
    3  A    between atoms: C_6  and  C_7
    4  A    between atoms: C_7  and  C_9
    5  A    between atoms: C_15  and  O_16
                            x       y       z     vdW  Elec       q    Type
                         _______ _______ _______ _____ _____    ______ ____

>  <TORSDO>
F 4

$$$$
bgox31_3_ligand
 OpenBabel10092621243D

 18 19  0  0  0  0  0  0  0  0999 V2000
   -1.8000   -2.8870   -6.6820 C   0  0  0  0  0  0  0  0  0  0  0  0
   -1.6180   -3.1700   -5.3540 C   0  0  0  0  0  3  0  0  0  0  0  0
   -0.3670   -3.0080   -4.7680 C   0  0  0  0  0  3  0  0  0  0  0  0
    0.7010   -2.5190   -5.4720 C   0  0  0  0  0  0  0  0  0  0  0  0
    0.4950   -2.2130   -6.8290 C   0  0  0  0  0  0  0  0  0  0  0  0
   -0.7020   -2.3990   -7.4290 C   0  0  0  0  0  3  0  0  0  0  0  0
   -4.1460   -3.4640   -6.4550 C   0  0  0  0  0  1  0  0  0  0  0  0
   -3.0740   -3.0560   -7.2550 O   0  0  0  0  0  0  0  0  0  0  0  0
    2.0600   -2.3650   -4.8550 C   0  0  0  0  0  0  0  0  0  0  0  0
    2.4700   -1.2470   -4.5770 O   0  0  0  0  0  0  0  0  0  0  0  0
    2.9600   -3.5400   -4.5750 C   0  0  0  0  0  0  0  0  0  0  0  0
    2.7010   -4.3420   -3.4950 C   0  0  0  0  0  3  0  0  0  0  0  0
    3.5500   -5.3890   -3.2420 C   0  0  0  0  0  3  0  0  0  0  0  0
    4.5380   -5.6860   -4.1230 C   0  0  0  0  0  3  0  0  0  0  0  0
    4.7730   -4.9190   -5.2870 C   0  0  0  0  0  3  0  0  0  0  0  0
    3.9630   -3.8100   -5.4610 C   0  0  0  0  0  3  0  0  0  0  0  0
    1.6260   -1.7940   -7.5240 O   0  0  0  0  0  0  0  0  0  0  0  0
    2.0860   -0.9580   -7.2630 H   0  0  0  0  0  0  0  0  0  0  0  0
  1  2  1  0  0  0  0
  2  3  2  0  0  0  0
  4  9  1  0  0  0  0
  4  3  1  0  0  0  0
  5  4  2  0  0  0  0
  6  5  1  0  0  0  0
  6  1  2  0  0  0  0
  8  1  1  0  0  0  0
  8  7  1  0  0  0  0
  9 10  2  0  0  0  0
  9 11  1  0  0  0  0
 11 12  1  0  0  0  0
 12 13  2  0  0  0  0
 14 13  1  0  0  0  0
 15 14  2  0  0  0  0
 16 15  1  0  0  0  0
 16 11  2  0  0  0  0
 17 18  1  0  0  0  0
 17  5  1  0  0  0  0
M  END
>  <MODEL>
7

>  <REMARK>
 VINA RESULT:      -4.5      2.047      3.675
  Name = bgox31_3_ligand
  5 active torsions:
  status: ('A' for Active; 'I' for Inactive)
    1  A    between atoms: C_1  and  O_2
    2  A    between atoms: O_2  and  C_3
    3  A    between atoms: C_6  and  C_7
    4  A    between atoms: C_7  and  C_9
    5  A    between atoms: C_15  and  O_16
                            x       y       z     vdW  Elec       q    Type
                         _______ _______ _______ _____ _____    ______ ____

>  <TORSDO>
F 4

$$$$
bgox31_3_ligand
 OpenBabel10092621243D

 18 19  0  0  0  0  0  0  0  0999 V2000
   -8.0140    1.4860    2.4940 C   0  0  0  0  0  0  0  0  0  0  0  0
   -6.7160    1.2000    2.1620 C   0  0  0  0  0  3  0  0  0  0  0  0
   -6.2830   -0.1210    2.1030 C   0  0  0  0  0  3  0  0  0  0  0  0
   -7.1350   -1.1690    2.3200 C   0  0  0  0  0  0  0  0  0  0  0  0
   -8.4700   -0.8610    2.6380 C   0  0  0  0  0  0  0  0  0  0  0  0
   -8.9040    0.4140    2.7390 C   0  0  0  0  0  3  0  0  0  0  0  0
   -7.4790    3.8490    2.6380 C   0  0  0  0  0  1  0  0  0  0  0  0
   -8.4320    2.8280    2.5460 O   0  0  0  0  0  0  0  0  0  0  0  0
   -6.6710   -2.5960    2.2830 C   0  0  0  0  0  0  0  0  0  0  0  0
   -6.9120   -3.2800    1.2990 O   0  0  0  0  0  0  0  0  0  0  0  0
   -5.9290   -3.2350    3.4260 C   0  0  0  0  0  0  0  0  0  0  0  0
   -4.6670   -2.8010    3.7350 C   0  0  0  0  0  3  0  0  0  0  0  0
   -3.9970   -3.4170    4.7610 C   0  0  0  0  0  3  0  0  0  0  0  0
   -4.6340   -4.3400    5.5250 C   0  0  0  0  0  3  0  0  0  0  0  0
   -5.9650   -4.7450    5.2750 C   0  0  0  0  0  3  0  0  0  0  0  0
   -6.5780   -4.1790    4.1710 C   0  0  0  0  0  3  0  0  0  0  0  0
   -9.2820   -1.9550    2.9270 O   0  0  0  0  0  0  0  0  0  0  0  0
   -8.8750   -2.8190    3.1850 H   0  0  0  0  0  0  0  0  0  0  0  0
  1  8  1  0  0  0  0
  1  6  1  0  0  0  0
  2  1  2  0  0  0  0
  3  2  1  0  0  0  0
  3  4  2  0  0  0  0
  4  5  1  0  0  0  0
  5  6  2  0  0  0  0
  5 17  1  0  0  0  0
  8  7  1  0  0  0  0
  9  4  1  0  0  0  0
  9 11  1  0  0  0  0
 10  9  2  0  0  0  0
 11 12  2  0  0  0  0
 11 16  1  0  0  0  0
 12 13  1  0  0  0  0
 13 14  2  0  0  0  0
 15 14  1  0  0  0  0
 16 15  2  0  0  0  0
 17 18  1  0  0  0  0
M  END
>  <MODEL>
8

>  <REMARK>
 VINA RESULT:      -4.5      9.738     10.839
  Name = bgox31_3_ligand
  5 active torsions:
  status: ('A' for Active; 'I' for Inactive)
    1  A    between atoms: C_1  and  O_2
    2  A    between atoms: O_2  and  C_3
    3  A    between atoms: C_6  and  C_7
    4  A    between atoms: C_7  and  C_9
    5  A    between atoms: C_15  and  O_16
                            x       y       z     vdW  Elec       q    Type
                         _______ _______ _______ _____ _____    ______ ____

>  <TORSDO>
F 4

$$$$
bgox31_3_ligand
 OpenBabel10092621243D

 18 19  0  0  0  0  0  0  0  0999 V2000
   -4.8170   -4.6910   -6.2360 C   0  0  0  0  0  0  0  0  0  0  0  0
   -5.0920   -3.7280   -7.1710 C   0  0  0  0  0  3  0  0  0  0  0  0
   -6.4050   -3.3310   -7.4040 C   0  0  0  0  0  3  0  0  0  0  0  0
   -7.4510   -3.8420   -6.6840 C   0  0  0  0  0  0  0  0  0  0  0  0
   -7.1520   -4.8150   -5.7120 C   0  0  0  0  0  0  0  0  0  0  0  0
   -5.8890   -5.2430   -5.4960 C   0  0  0  0  0  3  0  0  0  0  0  0
   -2.7410   -4.4590   -5.0010 C   0  0  0  0  0  1  0  0  0  0  0  0
   -3.4830   -5.0760   -6.0150 O   0  0  0  0  0  0  0  0  0  0  0  0
   -8.8720   -3.4390   -6.9450 C   0  0  0  0  0  0  0  0  0  0  0  0
   -9.6350   -4.2360   -7.4720 O   0  0  0  0  0  0  0  0  0  0  0  0
   -9.4030   -2.0740   -6.5980 C   0  0  0  0  0  0  0  0  0  0  0  0
   -9.9160   -1.8490   -5.3480 C   0  0  0  0  0  3  0  0  0  0  0  0
  -10.4210   -0.6060   -5.0630 C   0  0  0  0  0  3  0  0  0  0  0  0
  -10.2860    0.4000   -5.9630 C   0  0  0  0  0  3  0  0  0  0  0  0
   -9.6870    0.2110   -7.2290 C   0  0  0  0  0  3  0  0  0  0  0  0
   -9.2790   -1.0780   -7.5260 C   0  0  0  0  0  3  0  0  0  0  0  0
   -8.2530   -5.3630   -5.0590 O   0  0  0  0  0  0  0  0  0  0  0  0
   -8.3700   -6.3450   -5.0270 H   0  0  0  0  0  0  0  0  0  0  0  0
  1  8  1  0  0  0  0
  1  6  1  0  0  0  0
  2  1  2  0  0  0  0
  3  2  1  0  0  0  0
  3  4  2  0  0  0  0
  4  5  1  0  0  0  0
  5  6  2  0  0  0  0
  5 17  1  0  0  0  0
  8  7  1  0  0  0  0
  9  4  1  0  0  0  0
  9 11  1  0  0  0  0
 10  9  2  0  0  0  0
 11 12  1  0  0  0  0
 12 13  2  0  0  0  0
 14 13  1  0  0  0  0
 15 14  2  0  0  0  0
 16 15  1  0  0  0  0
 16 11  2  0  0  0  0
 17 18  1  0  0  0  0
M  END
>  <MODEL>
9

>  <REMARK>
 VINA RESULT:      -4.5      4.078      8.086
  Name = bgox31_3_ligand
  5 active torsions:
  status: ('A' for Active; 'I' for Inactive)
    1  A    between atoms: C_1  and  O_2
    2  A    between atoms: O_2  and  C_3
    3  A    between atoms: C_6  and  C_7
    4  A    between atoms: C_7  and  C_9
    5  A    between atoms: C_15  and  O_16
                            x       y       z     vdW  Elec       q    Type
                         _______ _______ _______ _____ _____    ______ ____

>  <TORSDO>
F 4

$$$$
