bg33_1_ligand
     RDKit          3D

 44 44  0  0  0  0  0  0  0  0999 V2000
   12.8491   -3.4337   -6.4961 C   0  0  0  0  0  0  0  0  0  0  0  0
   13.8609   -4.0914   -5.5847 C   0  0  0  0  0  0  0  0  0  0  0  0
   13.7214   -5.5328   -5.6450 C   0  0  0  0  0  0  0  0  0  0  0  0
   12.7224   -5.7895   -4.6707 C   0  0  0  0  0  0  0  0  0  0  0  0
   12.0944   -7.0353   -4.8191 C   0  0  2  0  0  0  0  0  0  0  0  0
   12.4582   -8.1257   -3.8696 C   0  0  0  0  0  0  0  0  0  0  0  0
   13.6749   -8.7687   -4.1872 C   0  0  0  0  0  0  0  0  0  0  0  0
   11.9858   -7.4521   -6.0044 O   0  0  0  0  0  0  0  0  0  0  0  0
   10.9996   -8.2707   -6.1491 C   0  0  0  0  0  0  0  0  0  0  0  0
   10.2539   -8.4818   -5.2304 O   0  0  0  0  0  0  0  0  0  0  0  0
   10.8134   -8.9014   -7.3945 C   0  0  0  0  0  0  0  0  0  0  0  0
   10.4088  -10.0918   -7.3960 C   0  0  0  0  0  0  0  0  0  0  0  0
   10.3265  -10.8856   -8.5193 C   0  0  0  0  0  0  0  0  0  0  0  0
    9.6007  -10.5188   -9.5852 C   0  0  0  0  0  0  0  0  0  0  0  0
    9.5073  -11.2884  -10.6980 C   0  0  0  0  0  0  0  0  0  0  0  0
   10.2198  -12.4514  -10.7105 C   0  0  0  0  0  0  0  0  0  0  0  0
   10.1687  -13.2504  -11.7499 O   0  0  0  0  0  0  0  0  0  0  0  0
   11.4067  -13.5152  -12.3147 C   0  0  0  0  0  0  0  0  0  0  0  0
   10.9572  -12.8521   -9.6956 C   0  0  0  0  0  0  0  0  0  0  0  0
   10.9908  -12.0800   -8.5852 C   0  0  0  0  0  0  0  0  0  0  0  0
   13.2888   -2.5277   -6.9389 H   0  0  0  0  0  0  0  0  0  0  0  0
   12.5675   -4.1335   -7.2967 H   0  0  0  0  0  0  0  0  0  0  0  0
   11.9552   -3.1614   -5.9158 H   0  0  0  0  0  0  0  0  0  0  0  0
   14.8754   -3.8102   -5.9039 H   0  0  0  0  0  0  0  0  0  0  0  0
   13.6874   -3.7554   -4.5518 H   0  0  0  0  0  0  0  0  0  0  0  0
   13.3948   -5.8584   -6.6435 H   0  0  0  0  0  0  0  0  0  0  0  0
   14.6624   -6.0710   -5.4582 H   0  0  0  0  0  0  0  0  0  0  0  0
   13.1906   -5.7533   -3.6759 H   0  0  0  0  0  0  0  0  0  0  0  0
   11.9453   -5.0214   -4.7980 H   0  0  0  0  0  0  0  0  0  0  0  0
   11.0853   -6.7457   -4.4906 H   0  0  0  0  0  0  0  0  0  0  0  0
   12.5454   -7.6944   -2.8615 H   0  0  0  0  0  0  0  0  0  0  0  0
   11.6656   -8.8859   -3.9320 H   0  0  0  0  0  0  0  0  0  0  0  0
   14.4145   -8.0183   -4.5030 H   0  0  0  0  0  0  0  0  0  0  0  0
   14.0495   -9.3027   -3.3014 H   0  0  0  0  0  0  0  0  0  0  0  0
   13.5082   -9.4858   -5.0045 H   0  0  0  0  0  0  0  0  0  0  0  0
   11.0156   -8.3694   -8.3359 H   0  0  0  0  0  0  0  0  0  0  0  0
   10.0996  -10.5292   -6.4353 H   0  0  0  0  0  0  0  0  0  0  0  0
    9.0621   -9.5601   -9.5560 H   0  0  0  0  0  0  0  0  0  0  0  0
    8.8841  -10.9878  -11.5532 H   0  0  0  0  0  0  0  0  0  0  0  0
   11.9148  -12.5673  -12.5457 H   0  0  0  0  0  0  0  0  0  0  0  0
   12.0165  -14.0950  -11.6062 H   0  0  0  0  0  0  0  0  0  0  0  0
   11.2711  -14.0936  -13.2405 H   0  0  0  0  0  0  0  0  0  0  0  0
   11.5304  -13.7893   -9.7493 H   0  0  0  0  0  0  0  0  0  0  0  0
   11.5670  -12.4214   -7.7126 H   0  0  0  0  0  0  0  0  0  0  0  0
  2  1  1  0
  3  2  1  0
  4  3  1  0
  5  4  1  0
  6  5  1  0
  7  6  1  0
  8  5  1  0
  9  8  1  0
 10  9  2  0
 11  9  1  0
 12 11  2  3
 13 12  1  0
 14 13  1  0
 15 14  2  0
 16 15  1  0
 17 16  1  0
 18 17  1  0
 19 16  2  0
 20 13  2  0
 20 19  1  0
  1 21  1  0
  1 22  1  0
  1 23  1  0
  2 24  1  0
  2 25  1  0
  3 26  1  0
  3 27  1  0
  4 28  1  0
  4 29  1  0
  5 30  1  1
  6 31  1  0
  6 32  1  0
  7 33  1  0
  7 34  1  0
  7 35  1  0
 11 36  1  0
 12 37  1  0
 14 38  1  0
 15 39  1  0
 18 40  1  0
 18 41  1  0
 18 42  1  0
 19 43  1  0
 20 44  1  0
M  END
$$$$
