bg33_1_ligand
 OpenBabel10092621133D

 20 20  0  0  1  0  0  0  0  0999 V2000
    4.5470   -2.1620   -4.1450 C   0  0  0  0  0  0  0  0  0  0  0  0
    3.8760   -2.1090   -3.1480 O   0  0  0  0  0  0  0  0  0  0  0  0
    4.7450   -3.3790   -4.8220 C   0  0  0  0  0  3  0  0  0  0  0  0
    4.2730   -3.4910   -5.9820 C   0  0  0  0  0  3  0  0  0  0  0  0
    4.2510   -4.6630   -6.7070 C   0  0  0  0  0  0  0  0  0  0  0  0
    3.3870   -4.8480   -7.7150 C   0  0  0  0  0  3  0  0  0  0  0  0
    3.3510   -5.9950   -8.4380 C   0  0  0  0  0  3  0  0  0  0  0  0
    4.2670   -6.9550   -8.1230 C   0  0  0  0  0  0  0  0  0  0  0  0
    5.1450   -6.8190   -7.1520 C   0  0  0  0  0  3  0  0  0  0  0  0
    5.1220   -5.6790   -6.4230 C   0  0  0  0  0  3  0  0  0  0  0  0
    4.2840   -8.0950   -8.7740 O   0  0  0  0  0  0  0  0  0  0  0  0
    4.6510   -9.1810   -7.9940 C   0  0  0  0  0  1  0  0  0  0  0  0
    5.0930   -1.0900   -4.6110 O   0  0  0  0  0  0  0  0  0  0  0  0
    4.3960   -0.0620   -4.3920 C   0  0  1  0  0  3  0  0  0  0  0  0
    5.2170    1.0770   -3.8890 C   0  0  0  0  0  2  0  0  0  0  0  0
    6.6070    0.8880   -4.0530 C   0  0  0  0  0  1  0  0  0  0  0  0
    3.4000    0.2070   -5.3420 C   0  0  0  0  0  2  0  0  0  0  0  0
    3.9040    0.4550   -6.6450 C   0  0  0  0  0  2  0  0  0  0  0  0
    1.8250   -0.7950   -6.7390 C   0  0  0  0  0  1  0  0  0  0  0  0
    3.0930   -0.4190   -7.4710 C   0  0  0  0  0  2  0  0  0  0  0  0
  1  2  2  0  0  0  0
  3  1  1  0  0  0  0
  4  3  2  0  0  0  0
  5 10  1  0  0  0  0
  5  4  1  0  0  0  0
  6  5  2  0  0  0  0
  7  8  2  0  0  0  0
  7  6  1  0  0  0  0
  8  9  1  0  0  0  0
  9 10  2  0  0  0  0
 11  8  1  0  0  0  0
 11 12  1  0  0  0  0
 13 14  1  0  0  0  0
 13  1  1  0  0  0  0
 14 17  1  6  0  0  0
 14 15  1  0  0  0  0
 16 15  1  0  0  0  0
 18 17  1  0  0  0  0
 20 19  1  0  0  0  0
 20 18  1  0  0  0  0
M  END
>  <MODEL>
1

>  <REMARK>
 VINA RESULT:      -3.4      0.000      0.000
  Name = bg33_1_ligand
  12 active torsions:
  status: ('A' for Active; 'I' for Inactive)
    1  A    between atoms: C_1  and  C_2
    2  A    between atoms: C_2  and  C_3
    3  A    between atoms: C_3  and  C_4
    4  A    between atoms: C_4  and  C_5
    5  A    between atoms: C_5  and  C_6
    6  A    between atoms: C_5  and  O_8
    7  A    between atoms: C_6  and  C_7
    8  A    between atoms: O_8  and  C_9
    9  A    between atoms: C_9  and  C_11
   10  A    between atoms: C_12  and  C_13
   11  A    between atoms: C_16  and  O_17
   12  A    between atoms: O_17  and  C_18
                            x       y       z     vdW  Elec       q    Type
                         _______ _______ _______ _____ _____    ______ ____

>  <TORSDO>
F 9

$$$$
bg33_1_ligand
 OpenBabel10092621133D

 20 20  0  0  1  0  0  0  0  0999 V2000
    3.9300   -6.5860   -7.8440 C   0  0  0  0  0  0  0  0  0  0  0  0
    3.7750   -6.9050   -8.9930 O   0  0  0  0  0  0  0  0  0  0  0  0
    3.8260   -5.2400   -7.4440 C   0  0  0  0  0  3  0  0  0  0  0  0
    4.4150   -4.8920   -6.3890 C   0  0  0  0  0  3  0  0  0  0  0  0
    4.2820   -3.6580   -5.7910 C   0  0  0  0  0  0  0  0  0  0  0  0
    4.8300   -3.3950   -4.5970 C   0  0  0  0  0  3  0  0  0  0  0  0
    4.7080   -2.1870   -3.9930 C   0  0  0  0  0  3  0  0  0  0  0  0
    4.0290   -1.2190   -4.6740 C   0  0  0  0  0  0  0  0  0  0  0  0
    3.4830   -1.4210   -5.8540 C   0  0  0  0  0  3  0  0  0  0  0  0
    3.5870   -2.6520   -6.4060 C   0  0  0  0  0  3  0  0  0  0  0  0
    3.8640   -0.0290   -4.1470 O   0  0  0  0  0  0  0  0  0  0  0  0
    5.0230    0.7290   -4.0980 C   0  0  0  0  0  1  0  0  0  0  0  0
    4.1890   -7.4840   -6.9550 O   0  0  0  0  0  0  0  0  0  0  0  0
    4.9540   -8.3860   -7.3920 C   0  0  1  0  0  3  0  0  0  0  0  0
    6.3930   -8.0180   -7.2560 C   0  0  0  0  0  2  0  0  0  0  0  0
    6.8260   -7.9170   -5.9150 C   0  0  0  0  0  1  0  0  0  0  0  0
    4.5740   -9.7010   -7.0890 C   0  0  0  0  0  2  0  0  0  0  0  0
    4.1590  -10.4530   -8.2180 C   0  0  0  0  0  2  0  0  0  0  0  0
    4.4670  -11.8260   -6.2410 C   0  0  0  0  0  1  0  0  0  0  0  0
    4.2170  -11.8170   -7.7320 C   0  0  0  0  0  2  0  0  0  0  0  0
  1  3  1  0  0  0  0
  1 13  1  0  0  0  0
  2  1  2  0  0  0  0
  3  4  2  0  0  0  0
  4  5  1  0  0  0  0
  5  6  1  0  0  0  0
  6  7  2  0  0  0  0
  8 11  1  0  0  0  0
  8  7  1  0  0  0  0
  9  8  2  0  0  0  0
 10  9  1  0  0  0  0
 10  5  2  0  0  0  0
 11 12  1  0  0  0  0
 14 15  1  1  0  0  0
 14 17  1  0  0  0  0
 14 13  1  0  0  0  0
 15 16  1  0  0  0  0
 18 20  1  0  0  0  0
 18 17  1  0  0  0  0
 20 19  1  0  0  0  0
M  END
>  <MODEL>
2

>  <REMARK>
 VINA RESULT:      -3.3      1.504      7.851
  Name = bg33_1_ligand
  12 active torsions:
  status: ('A' for Active; 'I' for Inactive)
    1  A    between atoms: C_1  and  C_2
    2  A    between atoms: C_2  and  C_3
    3  A    between atoms: C_3  and  C_4
    4  A    between atoms: C_4  and  C_5
    5  A    between atoms: C_5  and  C_6
    6  A    between atoms: C_5  and  O_8
    7  A    between atoms: C_6  and  C_7
    8  A    between atoms: O_8  and  C_9
    9  A    between atoms: C_9  and  C_11
   10  A    between atoms: C_12  and  C_13
   11  A    between atoms: C_16  and  O_17
   12  A    between atoms: O_17  and  C_18
                            x       y       z     vdW  Elec       q    Type
                         _______ _______ _______ _____ _____    ______ ____

>  <TORSDO>
F 9

$$$$
bg33_1_ligand
 OpenBabel10092621133D

 20 20  0  0  1  0  0  0  0  0999 V2000
    4.0760   -0.6770   -4.8730 C   0  0  0  0  0  0  0  0  0  0  0  0
    3.8370    0.3360   -4.2710 O   0  0  0  0  0  0  0  0  0  0  0  0
    4.3990   -1.8660   -4.1910 C   0  0  0  0  0  3  0  0  0  0  0  0
    5.6110   -2.1930   -4.1220 C   0  0  0  0  0  3  0  0  0  0  0  0
    6.0680   -3.3950   -3.6260 C   0  0  0  0  0  0  0  0  0  0  0  0
    6.4370   -3.5300   -2.3450 C   0  0  0  0  0  3  0  0  0  0  0  0
    6.8900   -4.7050   -1.8410 C   0  0  0  0  0  3  0  0  0  0  0  0
    6.9200   -5.7730   -2.6890 C   0  0  0  0  0  0  0  0  0  0  0  0
    6.5580   -5.6980   -3.9520 C   0  0  0  0  0  3  0  0  0  0  0  0
    6.1540   -4.4990   -4.4310 C   0  0  0  0  0  3  0  0  0  0  0  0
    7.3560   -6.9390   -2.2720 O   0  0  0  0  0  0  0  0  0  0  0  0
    6.7450   -7.3830   -1.1100 C   0  0  0  0  0  1  0  0  0  0  0  0
    4.0320   -0.6870   -6.1620 O   0  0  0  0  0  0  0  0  0  0  0  0
    3.1080   -1.4210   -6.6060 C   0  0  1  0  0  3  0  0  0  0  0  0
    1.7760   -0.7530   -6.5360 C   0  0  0  0  0  2  0  0  0  0  0  0
    0.8250   -1.2920   -7.4300 C   0  0  0  0  0  1  0  0  0  0  0  0
    3.4200   -2.1580   -7.7570 C   0  0  0  0  0  2  0  0  0  0  0  0
    4.3110   -3.2370   -7.5220 C   0  0  0  0  0  2  0  0  0  0  0  0
    3.9790   -5.6250   -7.2480 C   0  0  0  0  0  1  0  0  0  0  0  0
    3.4450   -4.2440   -6.9410 C   0  0  0  0  0  2  0  0  0  0  0  0
  1  2  2  0  0  0  0
  1  3  1  0  0  0  0
  3  4  2  0  0  0  0
  4  5  1  0  0  0  0
  5  6  1  0  0  0  0
  6  7  2  0  0  0  0
  8 11  1  0  0  0  0
  8  7  1  0  0  0  0
  9  8  2  0  0  0  0
 10  9  1  0  0  0  0
 10  5  2  0  0  0  0
 11 12  1  0  0  0  0
 13  1  1  0  0  0  0
 14 17  1  6  0  0  0
 14 15  1  0  0  0  0
 14 13  1  0  0  0  0
 16 15  1  0  0  0  0
 17 18  1  0  0  0  0
 18 20  1  0  0  0  0
 19 20  1  0  0  0  0
M  END
>  <MODEL>
3

>  <REMARK>
 VINA RESULT:      -3.3      2.686      4.749
  Name = bg33_1_ligand
  12 active torsions:
  status: ('A' for Active; 'I' for Inactive)
    1  A    between atoms: C_1  and  C_2
    2  A    between atoms: C_2  and  C_3
    3  A    between atoms: C_3  and  C_4
    4  A    between atoms: C_4  and  C_5
    5  A    between atoms: C_5  and  C_6
    6  A    between atoms: C_5  and  O_8
    7  A    between atoms: C_6  and  C_7
    8  A    between atoms: O_8  and  C_9
    9  A    between atoms: C_9  and  C_11
   10  A    between atoms: C_12  and  C_13
   11  A    between atoms: C_16  and  O_17
   12  A    between atoms: O_17  and  C_18
                            x       y       z     vdW  Elec       q    Type
                         _______ _______ _______ _____ _____    ______ ____

>  <TORSDO>
F 9

$$$$
bg33_1_ligand
 OpenBabel10092621133D

 20 20  0  0  1  0  0  0  0  0999 V2000
    4.2320   -7.1380   -8.4730 C   0  0  0  0  0  0  0  0  0  0  0  0
    4.2360   -6.7320   -9.6050 O   0  0  0  0  0  0  0  0  0  0  0  0
    4.0550   -6.2590   -7.3880 C   0  0  0  0  0  3  0  0  0  0  0  0
    4.0650   -5.0240   -7.6240 C   0  0  0  0  0  3  0  0  0  0  0  0
    4.0580   -4.0440   -6.6550 C   0  0  0  0  0  0  0  0  0  0  0  0
    4.7040   -4.2040   -5.4920 C   0  0  0  0  0  3  0  0  0  0  0  0
    4.7070   -3.2510   -4.5270 C   0  0  0  0  0  3  0  0  0  0  0  0
    4.0500   -2.0880   -4.8020 C   0  0  0  0  0  0  0  0  0  0  0  0
    3.4110   -1.8740   -5.9330 C   0  0  0  0  0  3  0  0  0  0  0  0
    3.3920   -2.8650   -6.8540 C   0  0  0  0  0  3  0  0  0  0  0  0
    4.0030   -1.1250   -3.9110 O   0  0  0  0  0  0  0  0  0  0  0  0
    4.2270    0.1380   -4.4370 C   0  0  0  0  0  1  0  0  0  0  0  0
    4.3850   -8.3980   -8.2390 O   0  0  0  0  0  0  0  0  0  0  0  0
    5.0310   -8.6140   -7.1790 C   0  0  1  0  0  3  0  0  0  0  0  0
    4.6090   -9.8790   -6.5110 C   0  0  0  0  0  2  0  0  0  0  0  0
    4.1730  -10.8760   -7.4120 C   0  0  0  0  0  1  0  0  0  0  0  0
    6.4010   -8.3180   -7.2340 C   0  0  0  0  0  2  0  0  0  0  0  0
    7.0270   -8.2660   -5.9620 C   0  0  0  0  0  2  0  0  0  0  0  0
    7.8180   -6.2170   -6.9940 C   0  0  0  0  0  1  0  0  0  0  0  0
    7.2150   -6.8430   -5.7580 C   0  0  0  0  0  2  0  0  0  0  0  0
  1 13  1  0  0  0  0
  1  3  1  0  0  0  0
  2  1  2  0  0  0  0
  4  3  2  0  0  0  0
  4  5  1  0  0  0  0
  5  6  1  0  0  0  0
  6  7  2  0  0  0  0
  8  7  1  0  0  0  0
  8 11  1  0  0  0  0
  9  8  2  0  0  0  0
 10  5  2  0  0  0  0
 10  9  1  0  0  0  0
 12 11  1  0  0  0  0
 13 14  1  0  0  0  0
 14 17  1  6  0  0  0
 14 15  1  0  0  0  0
 16 15  1  0  0  0  0
 17 18  1  0  0  0  0
 18 20  1  0  0  0  0
 19 20  1  0  0  0  0
M  END
>  <MODEL>
4

>  <REMARK>
 VINA RESULT:      -3.2      1.510      7.535
  Name = bg33_1_ligand
  12 active torsions:
  status: ('A' for Active; 'I' for Inactive)
    1  A    between atoms: C_1  and  C_2
    2  A    between atoms: C_2  and  C_3
    3  A    between atoms: C_3  and  C_4
    4  A    between atoms: C_4  and  C_5
    5  A    between atoms: C_5  and  C_6
    6  A    between atoms: C_5  and  O_8
    7  A    between atoms: C_6  and  C_7
    8  A    between atoms: O_8  and  C_9
    9  A    between atoms: C_9  and  C_11
   10  A    between atoms: C_12  and  C_13
   11  A    between atoms: C_16  and  O_17
   12  A    between atoms: O_17  and  C_18
                            x       y       z     vdW  Elec       q    Type
                         _______ _______ _______ _____ _____    ______ ____

>  <TORSDO>
F 9

$$$$
bg33_1_ligand
 OpenBabel10092621133D

 20 20  0  0  1  0  0  0  0  0999 V2000
    4.0400   -0.6130   -4.6420 C   0  0  0  0  0  0  0  0  0  0  0  0
    4.9460   -0.4900   -3.8620 O   0  0  0  0  0  0  0  0  0  0  0  0
    3.7300   -1.8670   -5.2010 C   0  0  0  0  0  3  0  0  0  0  0  0
    4.6660   -2.6940   -5.3480 C   0  0  0  0  0  3  0  0  0  0  0  0
    4.5510   -3.8930   -6.0150 C   0  0  0  0  0  0  0  0  0  0  0  0
    5.3800   -4.9170   -5.7650 C   0  0  0  0  0  3  0  0  0  0  0  0
    5.2820   -6.1040   -6.4130 C   0  0  0  0  0  3  0  0  0  0  0  0
    4.2680   -6.2360   -7.3170 C   0  0  0  0  0  0  0  0  0  0  0  0
    3.4200   -5.2670   -7.5910 C   0  0  0  0  0  3  0  0  0  0  0  0
    3.5760   -4.0820   -6.9570 C   0  0  0  0  0  3  0  0  0  0  0  0
    4.1190   -7.3530   -7.9890 O   0  0  0  0  0  0  0  0  0  0  0  0
    4.7360   -8.4470   -7.4020 C   0  0  0  0  0  1  0  0  0  0  0  0
    3.3310    0.4120   -4.9730 O   0  0  0  0  0  0  0  0  0  0  0  0
    3.2870    0.5840   -6.2220 C   0  0  1  0  0  3  0  0  0  0  0  0
    1.9000    0.8360   -6.7070 C   0  0  0  0  0  2  0  0  0  0  0  0
    1.3140   -0.2780   -7.3480 C   0  0  0  0  0  1  0  0  0  0  0  0
    4.3290    1.3500   -6.7640 C   0  0  0  0  0  2  0  0  0  0  0  0
    4.6140    1.0510   -8.1210 C   0  0  0  0  0  2  0  0  0  0  0  0
    4.9040   -1.2090   -8.9550 C   0  0  0  0  0  1  0  0  0  0  0  0
    5.4290   -0.1440   -8.0200 C   0  0  0  0  0  2  0  0  0  0  0  0
  1  2  2  0  0  0  0
  3  1  1  0  0  0  0
  4  3  2  0  0  0  0
  5  6  1  0  0  0  0
  5  4  1  0  0  0  0
  7  6  2  0  0  0  0
  8  7  1  0  0  0  0
  9  8  2  0  0  0  0
  9 10  1  0  0  0  0
 10  5  2  0  0  0  0
 11 12  1  0  0  0  0
 11  8  1  0  0  0  0
 13  1  1  0  0  0  0
 14 17  1  1  0  0  0
 14 13  1  0  0  0  0
 15 14  1  0  0  0  0
 16 15  1  0  0  0  0
 18 20  1  0  0  0  0
 18 17  1  0  0  0  0
 19 20  1  0  0  0  0
M  END
>  <MODEL>
5

>  <REMARK>
 VINA RESULT:      -3.2      1.309      2.646
  Name = bg33_1_ligand
  12 active torsions:
  status: ('A' for Active; 'I' for Inactive)
    1  A    between atoms: C_1  and  C_2
    2  A    between atoms: C_2  and  C_3
    3  A    between atoms: C_3  and  C_4
    4  A    between atoms: C_4  and  C_5
    5  A    between atoms: C_5  and  C_6
    6  A    between atoms: C_5  and  O_8
    7  A    between atoms: C_6  and  C_7
    8  A    between atoms: O_8  and  C_9
    9  A    between atoms: C_9  and  C_11
   10  A    between atoms: C_12  and  C_13
   11  A    between atoms: C_16  and  O_17
   12  A    between atoms: O_17  and  C_18
                            x       y       z     vdW  Elec       q    Type
                         _______ _______ _______ _____ _____    ______ ____

>  <TORSDO>
F 9

$$$$
bg33_1_ligand
 OpenBabel10092621133D

 20 20  0  0  1  0  0  0  0  0999 V2000
    5.6570   -2.1890   -4.0970 C   0  0  0  0  0  0  0  0  0  0  0  0
    6.6450   -1.8020   -3.5300 O   0  0  0  0  0  0  0  0  0  0  0  0
    4.9120   -1.3280   -4.9240 C   0  0  0  0  0  3  0  0  0  0  0  0
    3.6860   -1.5700   -5.0720 C   0  0  0  0  0  3  0  0  0  0  0  0
    2.8640   -0.9150   -5.9630 C   0  0  0  0  0  0  0  0  0  0  0  0
    2.1400   -1.5850   -6.8700 C   0  0  0  0  0  3  0  0  0  0  0  0
    1.3260   -0.9580   -7.7560 C   0  0  0  0  0  3  0  0  0  0  0  0
    1.2400    0.4010   -7.6630 C   0  0  0  0  0  0  0  0  0  0  0  0
    1.9190    1.1050   -6.7840 C   0  0  0  0  0  3  0  0  0  0  0  0
    2.7550    0.4490   -5.9460 C   0  0  0  0  0  3  0  0  0  0  0  0
    0.4800    1.0750   -8.4940 O   0  0  0  0  0  0  0  0  0  0  0  0
    1.1830    1.7310   -9.4920 C   0  0  0  0  0  1  0  0  0  0  0  0
    5.2710   -3.4120   -3.9560 O   0  0  0  0  0  0  0  0  0  0  0  0
    6.1350   -4.2390   -4.3550 C   0  0  1  0  0  3  0  0  0  0  0  0
    6.5260   -5.2030   -3.2880 C   0  0  0  0  0  2  0  0  0  0  0  0
    7.9150   -5.4510   -3.2300 C   0  0  0  0  0  1  0  0  0  0  0  0
    5.9480   -4.7280   -5.6560 C   0  0  0  0  0  2  0  0  0  0  0  0
    4.6000   -5.0550   -5.9560 C   0  0  0  0  0  2  0  0  0  0  0  0
    3.1710   -5.0600   -7.9180 C   0  0  0  0  0  1  0  0  0  0  0  0
    4.4290   -4.5070   -7.2880 C   0  0  0  0  0  2  0  0  0  0  0  0
  1 13  1  0  0  0  0
  1  2  2  0  0  0  0
  3  1  1  0  0  0  0
  4  3  2  0  0  0  0
  5 10  1  0  0  0  0
  5  4  1  0  0  0  0
  6  5  2  0  0  0  0
  7  8  2  0  0  0  0
  7  6  1  0  0  0  0
  8  9  1  0  0  0  0
  9 10  2  0  0  0  0
 11  8  1  0  0  0  0
 12 11  1  0  0  0  0
 14 17  1  6  0  0  0
 14 13  1  0  0  0  0
 14 15  1  0  0  0  0
 15 16  1  0  0  0  0
 18 17  1  0  0  0  0
 19 20  1  0  0  0  0
 20 18  1  0  0  0  0
M  END
>  <MODEL>
6

>  <REMARK>
 VINA RESULT:      -3.1      2.409      5.926
  Name = bg33_1_ligand
  12 active torsions:
  status: ('A' for Active; 'I' for Inactive)
    1  A    between atoms: C_1  and  C_2
    2  A    between atoms: C_2  and  C_3
    3  A    between atoms: C_3  and  C_4
    4  A    between atoms: C_4  and  C_5
    5  A    between atoms: C_5  and  C_6
    6  A    between atoms: C_5  and  O_8
    7  A    between atoms: C_6  and  C_7
    8  A    between atoms: O_8  and  C_9
    9  A    between atoms: C_9  and  C_11
   10  A    between atoms: C_12  and  C_13
   11  A    between atoms: C_16  and  O_17
   12  A    between atoms: O_17  and  C_18
                            x       y       z     vdW  Elec       q    Type
                         _______ _______ _______ _____ _____    ______ ____

>  <TORSDO>
F 9

$$$$
bg33_1_ligand
 OpenBabel10092621133D

 20 20  0  0  1  0  0  0  0  0999 V2000
    1.6320   -1.7450   -7.6490 C   0  0  0  0  0  0  0  0  0  0  0  0
    0.8250   -1.8110   -8.5370 O   0  0  0  0  0  0  0  0  0  0  0  0
    2.6890   -2.6700   -7.5590 C   0  0  0  0  0  3  0  0  0  0  0  0
    2.4430   -3.8730   -7.8330 C   0  0  0  0  0  3  0  0  0  0  0  0
    3.3280   -4.9130   -7.6450 C   0  0  0  0  0  0  0  0  0  0  0  0
    3.3960   -5.9390   -8.5040 C   0  0  0  0  0  3  0  0  0  0  0  0
    4.2590   -6.9710   -8.3340 C   0  0  0  0  0  3  0  0  0  0  0  0
    5.0970   -6.9080   -7.2590 C   0  0  0  0  0  0  0  0  0  0  0  0
    5.0800   -5.9180   -6.3930 C   0  0  0  0  0  3  0  0  0  0  0  0
    4.1750   -4.9280   -6.5700 C   0  0  0  0  0  3  0  0  0  0  0  0
    5.9520   -7.8760   -7.0270 O   0  0  0  0  0  0  0  0  0  0  0  0
    6.7320   -8.2120   -8.1230 C   0  0  0  0  0  1  0  0  0  0  0  0
    1.5410   -0.8110   -6.7630 O   0  0  0  0  0  0  0  0  0  0  0  0
    2.5710   -0.0860   -6.7210 C   0  0  1  0  0  3  0  0  0  0  0  0
    2.5150    1.0290   -7.7100 C   0  0  0  0  0  2  0  0  0  0  0  0
    1.4410    1.9210   -7.4960 C   0  0  0  0  0  1  0  0  0  0  0  0
    3.0650    0.1890   -5.4380 C   0  0  0  0  0  2  0  0  0  0  0  0
    4.3010   -0.4460   -5.1510 C   0  0  0  0  0  2  0  0  0  0  0  0
    5.1070   -2.4040   -3.9660 C   0  0  0  0  0  1  0  0  0  0  0  0
    3.8950   -1.5890   -4.3570 C   0  0  0  0  0  2  0  0  0  0  0  0
  1  3  1  0  0  0  0
  1 13  1  0  0  0  0
  2  1  2  0  0  0  0
  4  5  1  0  0  0  0
  4  3  2  0  0  0  0
  5 10  1  0  0  0  0
  6  7  1  0  0  0  0
  6  5  2  0  0  0  0
  7  8  2  0  0  0  0
  8 11  1  0  0  0  0
  8  9  1  0  0  0  0
 10  9  2  0  0  0  0
 12 11  1  0  0  0  0
 13 14  1  0  0  0  0
 14 15  1  1  0  0  0
 14 17  1  0  0  0  0
 15 16  1  0  0  0  0
 17 18  1  0  0  0  0
 18 20  1  0  0  0  0
 20 19  1  0  0  0  0
M  END
>  <MODEL>
7

>  <REMARK>
 VINA RESULT:      -3.1      2.062      3.340
  Name = bg33_1_ligand
  12 active torsions:
  status: ('A' for Active; 'I' for Inactive)
    1  A    between atoms: C_1  and  C_2
    2  A    between atoms: C_2  and  C_3
    3  A    between atoms: C_3  and  C_4
    4  A    between atoms: C_4  and  C_5
    5  A    between atoms: C_5  and  C_6
    6  A    between atoms: C_5  and  O_8
    7  A    between atoms: C_6  and  C_7
    8  A    between atoms: O_8  and  C_9
    9  A    between atoms: C_9  and  C_11
   10  A    between atoms: C_12  and  C_13
   11  A    between atoms: C_16  and  O_17
   12  A    between atoms: O_17  and  C_18
                            x       y       z     vdW  Elec       q    Type
                         _______ _______ _______ _____ _____    ______ ____

>  <TORSDO>
F 9

$$$$
bg33_1_ligand
 OpenBabel10092621133D

 20 20  0  0  1  0  0  0  0  0999 V2000
    5.9320   -6.9560   -6.5940 C   0  0  0  0  0  0  0  0  0  0  0  0
    6.9610   -7.5780   -6.5660 O   0  0  0  0  0  0  0  0  0  0  0  0
    5.8460   -5.6710   -6.0250 C   0  0  0  0  0  3  0  0  0  0  0  0
    4.7060   -5.1530   -5.9110 C   0  0  0  0  0  3  0  0  0  0  0  0
    4.4750   -3.8530   -5.5190 C   0  0  0  0  0  0  0  0  0  0  0  0
    3.7780   -3.0030   -6.2870 C   0  0  0  0  0  3  0  0  0  0  0  0
    3.5420   -1.7190   -5.9180 C   0  0  0  0  0  3  0  0  0  0  0  0
    4.0140   -1.3270   -4.7000 C   0  0  0  0  0  0  0  0  0  0  0  0
    4.6920   -2.1250   -3.9020 C   0  0  0  0  0  3  0  0  0  0  0  0
    4.9470   -3.3860   -4.3230 C   0  0  0  0  0  3  0  0  0  0  0  0
    3.8310   -0.0970   -4.2820 O   0  0  0  0  0  0  0  0  0  0  0  0
    4.8340    0.7800   -4.6640 C   0  0  0  0  0  1  0  0  0  0  0  0
    4.8880   -7.4630   -7.1560 O   0  0  0  0  0  0  0  0  0  0  0  0
    5.1050   -7.8130   -8.3480 C   0  0  1  0  0  3  0  0  0  0  0  0
    4.5250   -9.1510   -8.6560 C   0  0  0  0  0  2  0  0  0  0  0  0
    4.5440  -10.0420   -7.5600 C   0  0  0  0  0  1  0  0  0  0  0  0
    4.9810   -6.7980   -9.3080 C   0  0  0  0  0  2  0  0  0  0  0  0
    3.6450   -6.3680   -9.5170 C   0  0  0  0  0  2  0  0  0  0  0  0
    5.2220   -4.5250   -9.5940 C   0  0  0  0  0  1  0  0  0  0  0  0
    3.7670   -4.9240   -9.4910 C   0  0  0  0  0  2  0  0  0  0  0  0
  1  2  2  0  0  0  0
  1  3  1  0  0  0  0
  3  4  2  0  0  0  0
  4  5  1  0  0  0  0
  5 10  1  0  0  0  0
  6  7  1  0  0  0  0
  6  5  2  0  0  0  0
  7  8  2  0  0  0  0
  8 11  1  0  0  0  0
  8  9  1  0  0  0  0
 10  9  2  0  0  0  0
 12 11  1  0  0  0  0
 13  1  1  0  0  0  0
 14 17  1  6  0  0  0
 14 13  1  0  0  0  0
 15 14  1  0  0  0  0
 15 16  1  0  0  0  0
 18 20  1  0  0  0  0
 18 17  1  0  0  0  0
 19 20  1  0  0  0  0
M  END
>  <MODEL>
8

>  <REMARK>
 VINA RESULT:      -3.1      1.475      6.978
  Name = bg33_1_ligand
  12 active torsions:
  status: ('A' for Active; 'I' for Inactive)
    1  A    between atoms: C_1  and  C_2
    2  A    between atoms: C_2  and  C_3
    3  A    between atoms: C_3  and  C_4
    4  A    between atoms: C_4  and  C_5
    5  A    between atoms: C_5  and  C_6
    6  A    between atoms: C_5  and  O_8
    7  A    between atoms: C_6  and  C_7
    8  A    between atoms: O_8  and  C_9
    9  A    between atoms: C_9  and  C_11
   10  A    between atoms: C_12  and  C_13
   11  A    between atoms: C_16  and  O_17
   12  A    between atoms: O_17  and  C_18
                            x       y       z     vdW  Elec       q    Type
                         _______ _______ _______ _____ _____    ______ ____

>  <TORSDO>
F 9

$$$$
bg33_1_ligand
 OpenBabel10092621133D

 20 20  0  0  1  0  0  0  0  0999 V2000
    4.9320   -5.6560   -6.3440 C   0  0  0  0  0  0  0  0  0  0  0  0
    6.1010   -5.4280   -6.5080 O   0  0  0  0  0  0  0  0  0  0  0  0
    4.3130   -6.7550   -6.9690 C   0  0  0  0  0  3  0  0  0  0  0  0
    5.0350   -7.7370   -7.2830 C   0  0  0  0  0  3  0  0  0  0  0  0
    4.6070   -8.8110   -8.0320 C   0  0  0  0  0  0  0  0  0  0  0  0
    4.4420   -8.7200   -9.3590 C   0  0  0  0  0  3  0  0  0  0  0  0
    4.0220   -9.7660  -10.1110 C   0  0  0  0  0  3  0  0  0  0  0  0
    3.8050  -10.9480   -9.4650 C   0  0  0  0  0  0  0  0  0  0  0  0
    3.9640  -11.0950   -8.1670 C   0  0  0  0  0  3  0  0  0  0  0  0
    4.3420  -10.0170   -7.4420 C   0  0  0  0  0  3  0  0  0  0  0  0
    3.3880  -12.0010  -10.1280 O   0  0  0  0  0  0  0  0  0  0  0  0
    3.0920  -13.0900   -9.3230 C   0  0  0  0  0  1  0  0  0  0  0  0
    4.2270   -4.8920   -5.5800 O   0  0  0  0  0  0  0  0  0  0  0  0
    4.4700   -3.6690   -5.7680 C   0  0  1  0  0  3  0  0  0  0  0  0
    3.4660   -3.0280   -6.6650 C   0  0  0  0  0  2  0  0  0  0  0  0
    4.0320   -2.4380   -7.8170 C   0  0  0  0  0  1  0  0  0  0  0  0
    4.9000   -2.9580   -4.6390 C   0  0  0  0  0  2  0  0  0  0  0  0
    3.9520   -2.0190   -4.1580 C   0  0  0  0  0  2  0  0  0  0  0  0
    3.9140    0.2890   -4.9100 C   0  0  0  0  0  1  0  0  0  0  0  0
    4.6980   -0.7750   -4.1750 C   0  0  0  0  0  2  0  0  0  0  0  0
  1 13  1  0  0  0  0
  2  1  2  0  0  0  0
  3  1  1  0  0  0  0
  4  3  2  0  0  0  0
  5 10  1  0  0  0  0
  5  4  1  0  0  0  0
  6  5  2  0  0  0  0
  7  8  2  0  0  0  0
  7  6  1  0  0  0  0
  8  9  1  0  0  0  0
  9 10  2  0  0  0  0
 11  8  1  0  0  0  0
 11 12  1  0  0  0  0
 14 15  1  1  0  0  0
 14 13  1  0  0  0  0
 14 17  1  0  0  0  0
 16 15  1  0  0  0  0
 17 18  1  0  0  0  0
 19 20  1  0  0  0  0
 20 18  1  0  0  0  0
M  END
>  <MODEL>
9

>  <REMARK>
 VINA RESULT:      -3.1      2.177      4.306
  Name = bg33_1_ligand
  12 active torsions:
  status: ('A' for Active; 'I' for Inactive)
    1  A    between atoms: C_1  and  C_2
    2  A    between atoms: C_2  and  C_3
    3  A    between atoms: C_3  and  C_4
    4  A    between atoms: C_4  and  C_5
    5  A    between atoms: C_5  and  C_6
    6  A    between atoms: C_5  and  O_8
    7  A    between atoms: C_6  and  C_7
    8  A    between atoms: O_8  and  C_9
    9  A    between atoms: C_9  and  C_11
   10  A    between atoms: C_12  and  C_13
   11  A    between atoms: C_16  and  O_17
   12  A    between atoms: O_17  and  C_18
                            x       y       z     vdW  Elec       q    Type
                         _______ _______ _______ _____ _____    ______ ____

>  <TORSDO>
F 9

$$$$
