s3_esm2_f4_ligand
 OpenBabel10092621063D

 20 20  0  0  1  0  0  0  0  0999 V2000
   -7.6890   -0.0880    4.2010 C   0  0  0  0  0  0  0  0  0  0  0  0
   -8.4880    0.2720    3.3800 O   0  0  0  0  0  0  0  0  0  0  0  0
   -6.9310    0.8400    5.0360 C   0  0  0  0  0  3  0  0  0  0  0  0
   -7.4690    1.3660    6.1300 C   0  0  0  0  0  3  0  0  0  0  0  0
   -6.6950    2.1420    7.1240 C   0  0  0  0  0  0  0  0  0  0  0  0
   -5.4620    2.6790    6.8120 C   0  0  0  0  0  3  0  0  0  0  0  0
   -4.7460    3.3700    7.7720 C   0  0  0  0  0  3  0  0  0  0  0  0
   -5.2400    3.5290    9.0320 C   0  0  0  0  0  0  0  0  0  0  0  0
   -6.4750    3.0000    9.3450 C   0  0  0  0  0  3  0  0  0  0  0  0
   -7.1930    2.3110    8.3880 C   0  0  0  0  0  3  0  0  0  0  0  0
   -4.5070    4.2010    9.9460 O   0  0  0  0  0  0  0  0  0  0  0  0
   -3.2060    4.6550    9.6120 C   0  0  0  0  0  1  0  0  0  0  0  0
   -7.4060   -1.4010    4.3990 O   0  0  0  0  0  0  0  0  0  0  0  0
   -6.6210   -1.7760    5.5160 C   0  0  1  0  0  3  0  0  0  0  0  0
   -7.4950   -2.3880    6.5850 C   0  0  0  0  0  2  0  0  0  0  0  0
   -7.2700   -1.8390    7.9630 C   0  0  0  0  0  1  0  0  0  0  0  0
   -5.5730   -2.7890    5.0750 C   0  0  0  0  0  2  0  0  0  0  0  0
   -4.2140   -2.4490    5.6170 C   0  0  0  0  0  2  0  0  0  0  0  0
   -3.6750   -0.6970    7.3150 C   0  0  0  0  0  1  0  0  0  0  0  0
   -4.0860   -0.9670    5.8640 C   0  0  0  0  0  2  0  0  0  0  0  0
  1 13  1  0  0  0  0
  1  3  1  0  0  0  0
  2  1  2  0  0  0  0
  3  4  2  0  0  0  0
  4  5  1  0  0  0  0
  5 10  1  0  0  0  0
  6  5  2  0  0  0  0
  6  7  1  0  0  0  0
  7  8  2  0  0  0  0
  8  9  1  0  0  0  0
  8 11  1  0  0  0  0
 10  9  2  0  0  0  0
 12 11  1  0  0  0  0
 13 14  1  0  0  0  0
 14 17  1  6  0  0  0
 14 15  1  0  0  0  0
 15 16  1  0  0  0  0
 17 18  1  0  0  0  0
 18 20  1  0  0  0  0
 20 19  1  0  0  0  0
M  END
>  <MODEL>
1

>  <REMARK>
 VINA RESULT:      -4.1      0.000      0.000
  Name = s3_esm2_f4_ligand
  12 active torsions:
  status: ('A' for Active; 'I' for Inactive)
    1  A    between atoms: C_1  and  C_2
    2  A    between atoms: C_2  and  C_3
    3  A    between atoms: C_3  and  C_4
    4  A    between atoms: C_4  and  C_5
    5  A    between atoms: C_5  and  C_6
    6  A    between atoms: C_5  and  O_8
    7  A    between atoms: C_6  and  C_7
    8  A    between atoms: O_8  and  C_9
    9  A    between atoms: C_9  and  C_11
   10  A    between atoms: C_12  and  C_13
   11  A    between atoms: C_16  and  O_17
   12  A    between atoms: O_17  and  C_18
                            x       y       z     vdW  Elec       q    Type
                         _______ _______ _______ _____ _____    ______ ____

>  <TORSDO>
F 9

$$$$
s3_esm2_f4_ligand
 OpenBabel10092621063D

 20 20  0  0  1  0  0  0  0  0999 V2000
   -3.6040    0.6060    8.4100 C   0  0  0  0  0  0  0  0  0  0  0  0
   -2.7240    0.7870    9.2070 O   0  0  0  0  0  0  0  0  0  0  0  0
   -3.9620   -0.7170    7.9050 C   0  0  0  0  0  3  0  0  0  0  0  0
   -3.4270   -1.1870    6.7850 C   0  0  0  0  0  3  0  0  0  0  0  0
   -3.5840   -2.5860    6.3330 C   0  0  0  0  0  0  0  0  0  0  0  0
   -4.2450   -2.8910    5.1600 C   0  0  0  0  0  3  0  0  0  0  0  0
   -4.4070   -4.2110    4.7810 C   0  0  0  0  0  3  0  0  0  0  0  0
   -3.9210   -5.2240    5.5520 C   0  0  0  0  0  0  0  0  0  0  0  0
   -3.2530   -4.9220    6.7210 C   0  0  0  0  0  3  0  0  0  0  0  0
   -3.0900   -3.6060    7.1010 C   0  0  0  0  0  3  0  0  0  0  0  0
   -4.1080   -6.5010    5.1530 O   0  0  0  0  0  0  0  0  0  0  0  0
   -3.7580   -6.8890    3.8350 C   0  0  0  0  0  1  0  0  0  0  0  0
   -4.3250    1.6330    7.8920 O   0  0  0  0  0  0  0  0  0  0  0  0
   -5.6980    1.4370    7.6070 C   0  0  1  0  0  3  0  0  0  0  0  0
   -6.5480    2.1960    8.5990 C   0  0  0  0  0  2  0  0  0  0  0  0
   -8.0250    2.0900    8.3610 C   0  0  0  0  0  1  0  0  0  0  0  0
   -5.9940    1.9350    6.1990 C   0  0  0  0  0  2  0  0  0  0  0  0
   -6.0920    0.7980    5.2220 C   0  0  0  0  0  2  0  0  0  0  0  0
   -7.4850   -1.1890    4.6250 C   0  0  0  0  0  1  0  0  0  0  0  0
   -6.9630   -0.3080    5.7640 C   0  0  0  0  0  2  0  0  0  0  0  0
  1  2  2  0  0  0  0
  3  1  1  0  0  0  0
  4  3  2  0  0  0  0
  5  4  1  0  0  0  0
  5 10  1  0  0  0  0
  6  5  2  0  0  0  0
  7  6  1  0  0  0  0
  7  8  2  0  0  0  0
  8  9  1  0  0  0  0
  9 10  2  0  0  0  0
 11  8  1  0  0  0  0
 12 11  1  0  0  0  0
 13  1  1  0  0  0  0
 14 17  1  6  0  0  0
 14 13  1  0  0  0  0
 14 15  1  0  0  0  0
 16 15  1  0  0  0  0
 18 20  1  0  0  0  0
 18 17  1  0  0  0  0
 19 20  1  0  0  0  0
M  END
>  <MODEL>
2

>  <REMARK>
 VINA RESULT:      -4.0      2.598      6.948
  Name = s3_esm2_f4_ligand
  12 active torsions:
  status: ('A' for Active; 'I' for Inactive)
    1  A    between atoms: C_1  and  C_2
    2  A    between atoms: C_2  and  C_3
    3  A    between atoms: C_3  and  C_4
    4  A    between atoms: C_4  and  C_5
    5  A    between atoms: C_5  and  C_6
    6  A    between atoms: C_5  and  O_8
    7  A    between atoms: C_6  and  C_7
    8  A    between atoms: O_8  and  C_9
    9  A    between atoms: C_9  and  C_11
   10  A    between atoms: C_12  and  C_13
   11  A    between atoms: C_16  and  O_17
   12  A    between atoms: O_17  and  C_18
                            x       y       z     vdW  Elec       q    Type
                         _______ _______ _______ _____ _____    ______ ____

>  <TORSDO>
F 9

$$$$
s3_esm2_f4_ligand
 OpenBabel10092621063D

 20 20  0  0  1  0  0  0  0  0999 V2000
   -7.1730    0.9160    5.4120 C   0  0  0  0  0  0  0  0  0  0  0  0
   -8.3300    1.2140    5.5390 O   0  0  0  0  0  0  0  0  0  0  0  0
   -6.0760    1.8060    5.7790 C   0  0  0  0  0  3  0  0  0  0  0  0
   -6.0200    2.3580    6.9860 C   0  0  0  0  0  3  0  0  0  0  0  0
   -4.8410    3.0940    7.4890 C   0  0  0  0  0  0  0  0  0  0  0  0
   -4.5190    4.3470    7.0090 C   0  0  0  0  0  3  0  0  0  0  0  0
   -3.3900    4.9970    7.4730 C   0  0  0  0  0  3  0  0  0  0  0  0
   -2.5830    4.4160    8.4050 C   0  0  0  0  0  0  0  0  0  0  0  0
   -2.9070    3.1670    8.8940 C   0  0  0  0  0  3  0  0  0  0  0  0
   -4.0330    2.5170    8.4320 C   0  0  0  0  0  3  0  0  0  0  0  0
   -1.4840    5.0780    8.8270 O   0  0  0  0  0  0  0  0  0  0  0  0
   -0.1950    4.5730    8.5220 C   0  0  0  0  0  1  0  0  0  0  0  0
   -6.7940   -0.2770    4.8850 O   0  0  0  0  0  0  0  0  0  0  0  0
   -6.3330   -1.2970    5.7520 C   0  0  1  0  0  3  0  0  0  0  0  0
   -7.4100   -2.3390    5.9480 C   0  0  0  0  0  2  0  0  0  0  0  0
   -6.9870   -3.5240    6.7650 C   0  0  0  0  0  1  0  0  0  0  0  0
   -5.0990   -1.9500    5.1440 C   0  0  0  0  0  2  0  0  0  0  0  0
   -3.8560   -1.1600    5.4390 C   0  0  0  0  0  2  0  0  0  0  0  0
   -3.0200   -1.9870    7.6440 C   0  0  0  0  0  1  0  0  0  0  0  0
   -3.7450   -0.8540    6.9120 C   0  0  0  0  0  2  0  0  0  0  0  0
  1  2  2  0  0  0  0
  1  3  1  0  0  0  0
  3  4  2  0  0  0  0
  4  5  1  0  0  0  0
  5 10  1  0  0  0  0
  6  7  1  0  0  0  0
  6  5  2  0  0  0  0
  7  8  2  0  0  0  0
  8 11  1  0  0  0  0
  8  9  1  0  0  0  0
 10  9  2  0  0  0  0
 12 11  1  0  0  0  0
 13  1  1  0  0  0  0
 13 14  1  0  0  0  0
 14 17  1  6  0  0  0
 14 15  1  0  0  0  0
 15 16  1  0  0  0  0
 17 18  1  0  0  0  0
 18 20  1  0  0  0  0
 20 19  1  0  0  0  0
M  END
>  <MODEL>
3

>  <REMARK>
 VINA RESULT:      -4.0      1.588      2.156
  Name = s3_esm2_f4_ligand
  12 active torsions:
  status: ('A' for Active; 'I' for Inactive)
    1  A    between atoms: C_1  and  C_2
    2  A    between atoms: C_2  and  C_3
    3  A    between atoms: C_3  and  C_4
    4  A    between atoms: C_4  and  C_5
    5  A    between atoms: C_5  and  C_6
    6  A    between atoms: C_5  and  O_8
    7  A    between atoms: C_6  and  C_7
    8  A    between atoms: O_8  and  C_9
    9  A    between atoms: C_9  and  C_11
   10  A    between atoms: C_12  and  C_13
   11  A    between atoms: C_16  and  O_17
   12  A    between atoms: O_17  and  C_18
                            x       y       z     vdW  Elec       q    Type
                         _______ _______ _______ _____ _____    ______ ____

>  <TORSDO>
F 9

$$$$
s3_esm2_f4_ligand
 OpenBabel10092621063D

 20 20  0  0  1  0  0  0  0  0999 V2000
   -6.0160    0.1770    5.2490 C   0  0  0  0  0  0  0  0  0  0  0  0
   -6.9760    0.5990    4.6640 O   0  0  0  0  0  0  0  0  0  0  0  0
   -5.7280   -1.2480    5.3830 C   0  0  0  0  0  3  0  0  0  0  0  0
   -4.4920   -1.7110    5.2390 C   0  0  0  0  0  3  0  0  0  0  0  0
   -4.1000   -3.0990    5.5650 C   0  0  0  0  0  0  0  0  0  0  0  0
   -3.3580   -3.3890    6.6920 C   0  0  0  0  0  3  0  0  0  0  0  0
   -2.9760   -4.6920    6.9530 C   0  0  0  0  0  3  0  0  0  0  0  0
   -3.3230   -5.7040    6.1090 C   0  0  0  0  0  0  0  0  0  0  0  0
   -4.0720   -5.4190    4.9850 C   0  0  0  0  0  3  0  0  0  0  0  0
   -4.4540   -4.1190    4.7230 C   0  0  0  0  0  3  0  0  0  0  0  0
   -2.9230   -6.9620    6.3920 O   0  0  0  0  0  0  0  0  0  0  0  0
   -2.8960   -7.9420    5.3670 C   0  0  0  0  0  1  0  0  0  0  0  0
   -5.1270    1.0030    5.8590 O   0  0  0  0  0  0  0  0  0  0  0  0
   -5.3250    1.3430    7.2190 C   0  0  1  0  0  3  0  0  0  0  0  0
   -4.0930    1.0050    8.0250 C   0  0  0  0  0  2  0  0  0  0  0  0
   -4.1520   -0.3200    8.7270 C   0  0  0  0  0  1  0  0  0  0  0  0
   -5.6080    2.8350    7.3260 C   0  0  0  0  0  2  0  0  0  0  0  0
   -4.4240    3.5830    7.8680 C   0  0  0  0  0  2  0  0  0  0  0  0
   -2.7490    5.3470    7.2940 C   0  0  0  0  0  1  0  0  0  0  0  0
   -4.1850    4.8540    7.0920 C   0  0  0  0  0  2  0  0  0  0  0  0
  1  3  1  0  0  0  0
  1 13  1  0  0  0  0
  2  1  2  0  0  0  0
  4  3  2  0  0  0  0
  4  5  1  0  0  0  0
  5  6  1  0  0  0  0
  6  7  2  0  0  0  0
  8 11  1  0  0  0  0
  8  7  1  0  0  0  0
  9  8  2  0  0  0  0
 10  9  1  0  0  0  0
 10  5  2  0  0  0  0
 12 11  1  0  0  0  0
 13 14  1  0  0  0  0
 14 17  1  6  0  0  0
 14 15  1  0  0  0  0
 15 16  1  0  0  0  0
 17 18  1  0  0  0  0
 20 19  1  0  0  0  0
 20 18  1  0  0  0  0
M  END
>  <MODEL>
4

>  <REMARK>
 VINA RESULT:      -4.0      2.830      6.957
  Name = s3_esm2_f4_ligand
  12 active torsions:
  status: ('A' for Active; 'I' for Inactive)
    1  A    between atoms: C_1  and  C_2
    2  A    between atoms: C_2  and  C_3
    3  A    between atoms: C_3  and  C_4
    4  A    between atoms: C_4  and  C_5
    5  A    between atoms: C_5  and  C_6
    6  A    between atoms: C_5  and  O_8
    7  A    between atoms: C_6  and  C_7
    8  A    between atoms: O_8  and  C_9
    9  A    between atoms: C_9  and  C_11
   10  A    between atoms: C_12  and  C_13
   11  A    between atoms: C_16  and  O_17
   12  A    between atoms: O_17  and  C_18
                            x       y       z     vdW  Elec       q    Type
                         _______ _______ _______ _____ _____    ______ ____

>  <TORSDO>
F 9

$$$$
s3_esm2_f4_ligand
 OpenBabel10092621063D

 20 20  0  0  1  0  0  0  0  0999 V2000
   -3.6680    0.9900    9.0620 C   0  0  0  0  0  0  0  0  0  0  0  0
   -3.3630    1.1600   10.2110 O   0  0  0  0  0  0  0  0  0  0  0  0
   -3.9670   -0.3250    8.5030 C   0  0  0  0  0  3  0  0  0  0  0  0
   -3.6240   -0.6310    7.2570 C   0  0  0  0  0  3  0  0  0  0  0  0
   -3.7080   -1.9990    6.7030 C   0  0  0  0  0  0  0  0  0  0  0  0
   -3.2490   -3.0900    7.4130 C   0  0  0  0  0  3  0  0  0  0  0  0
   -3.3090   -4.3540    6.8550 C   0  0  0  0  0  3  0  0  0  0  0  0
   -3.8180   -4.5420    5.6050 C   0  0  0  0  0  0  0  0  0  0  0  0
   -4.2860   -3.4550    4.8950 C   0  0  0  0  0  3  0  0  0  0  0  0
   -4.2270   -2.1930    5.4500 C   0  0  0  0  0  3  0  0  0  0  0  0
   -3.8510   -5.7900    5.0890 O   0  0  0  0  0  0  0  0  0  0  0  0
   -4.2410   -5.9870    3.7400 C   0  0  0  0  0  1  0  0  0  0  0  0
   -3.7320    2.0180    8.1770 O   0  0  0  0  0  0  0  0  0  0  0  0
   -4.9220    2.7820    8.0930 C   0  0  1  0  0  3  0  0  0  0  0  0
   -4.6410    4.2230    8.4490 C   0  0  0  0  0  2  0  0  0  0  0  0
   -4.0620    5.0380    7.3300 C   0  0  0  0  0  1  0  0  0  0  0  0
   -5.4660    2.7060    6.6730 C   0  0  0  0  0  2  0  0  0  0  0  0
   -6.5690    1.6920    6.5590 C   0  0  0  0  0  2  0  0  0  0  0  0
   -7.7040    0.8680    4.4920 C   0  0  0  0  0  1  0  0  0  0  0  0
   -6.4120    0.8580    5.3130 C   0  0  0  0  0  2  0  0  0  0  0  0
  1  2  2  0  0  0  0
  3  1  1  0  0  0  0
  4  3  2  0  0  0  0
  5  4  1  0  0  0  0
  5  6  1  0  0  0  0
  7  6  2  0  0  0  0
  8  7  1  0  0  0  0
  9 10  1  0  0  0  0
  9  8  2  0  0  0  0
 10  5  2  0  0  0  0
 11  8  1  0  0  0  0
 12 11  1  0  0  0  0
 13  1  1  0  0  0  0
 14 17  1  6  0  0  0
 14 13  1  0  0  0  0
 14 15  1  0  0  0  0
 16 15  1  0  0  0  0
 18 17  1  0  0  0  0
 19 20  1  0  0  0  0
 20 18  1  0  0  0  0
M  END
>  <MODEL>
5

>  <REMARK>
 VINA RESULT:      -3.9      2.658      7.123
  Name = s3_esm2_f4_ligand
  12 active torsions:
  status: ('A' for Active; 'I' for Inactive)
    1  A    between atoms: C_1  and  C_2
    2  A    between atoms: C_2  and  C_3
    3  A    between atoms: C_3  and  C_4
    4  A    between atoms: C_4  and  C_5
    5  A    between atoms: C_5  and  C_6
    6  A    between atoms: C_5  and  O_8
    7  A    between atoms: C_6  and  C_7
    8  A    between atoms: O_8  and  C_9
    9  A    between atoms: C_9  and  C_11
   10  A    between atoms: C_12  and  C_13
   11  A    between atoms: C_16  and  O_17
   12  A    between atoms: O_17  and  C_18
                            x       y       z     vdW  Elec       q    Type
                         _______ _______ _______ _____ _____    ______ ____

>  <TORSDO>
F 9

$$$$
s3_esm2_f4_ligand
 OpenBabel10092621063D

 20 20  0  0  1  0  0  0  0  0999 V2000
   -8.0200    1.0620    7.1840 C   0  0  0  0  0  0  0  0  0  0  0  0
   -9.1860    1.1900    7.4410 O   0  0  0  0  0  0  0  0  0  0  0  0
   -7.0390    2.1250    7.3860 C   0  0  0  0  0  3  0  0  0  0  0  0
   -5.8370    1.8580    7.8830 C   0  0  0  0  0  3  0  0  0  0  0  0
   -4.7340    2.8420    7.9160 C   0  0  0  0  0  0  0  0  0  0  0  0
   -4.7780    3.9950    7.1580 C   0  0  0  0  0  3  0  0  0  0  0  0
   -3.7160    4.8800    7.1840 C   0  0  0  0  0  3  0  0  0  0  0  0
   -2.6170    4.6320    7.9510 C   0  0  0  0  0  0  0  0  0  0  0  0
   -2.5730    3.4840    8.7160 C   0  0  0  0  0  3  0  0  0  0  0  0
   -3.6320    2.6000    8.6930 C   0  0  0  0  0  3  0  0  0  0  0  0
   -1.5950    5.5150    7.9410 O   0  0  0  0  0  0  0  0  0  0  0  0
   -0.2940    5.0940    8.3170 C   0  0  0  0  0  1  0  0  0  0  0  0
   -7.5230   -0.0850    6.6560 O   0  0  0  0  0  0  0  0  0  0  0  0
   -7.8530   -0.4300    5.3230 C   0  0  1  0  0  3  0  0  0  0  0  0
   -7.5830    0.7370    4.4020 C   0  0  0  0  0  2  0  0  0  0  0  0
   -8.6740    1.0110    3.4100 C   0  0  0  0  0  1  0  0  0  0  0  0
   -7.0120   -1.6230    4.8920 C   0  0  0  0  0  2  0  0  0  0  0  0
   -5.9060   -1.9010    5.8700 C   0  0  0  0  0  2  0  0  0  0  0  0
   -3.6950   -0.9260    6.5050 C   0  0  0  0  0  1  0  0  0  0  0  0
   -4.5840   -1.3960    5.3500 C   0  0  0  0  0  2  0  0  0  0  0  0
  1  3  1  0  0  0  0
  1  2  2  0  0  0  0
  3  4  2  0  0  0  0
  4  5  1  0  0  0  0
  5 10  1  0  0  0  0
  6  7  1  0  0  0  0
  6  5  2  0  0  0  0
  7  8  2  0  0  0  0
  8  9  1  0  0  0  0
 10  9  2  0  0  0  0
 11  8  1  0  0  0  0
 11 12  1  0  0  0  0
 13  1  1  0  0  0  0
 14 15  1  6  0  0  0
 14 13  1  0  0  0  0
 16 15  1  0  0  0  0
 17 14  1  0  0  0  0
 17 18  1  0  0  0  0
 20 18  1  0  0  0  0
 20 19  1  0  0  0  0
M  END
>  <MODEL>
6

>  <REMARK>
 VINA RESULT:      -3.9      1.909      2.988
  Name = s3_esm2_f4_ligand
  12 active torsions:
  status: ('A' for Active; 'I' for Inactive)
    1  A    between atoms: C_1  and  C_2
    2  A    between atoms: C_2  and  C_3
    3  A    between atoms: C_3  and  C_4
    4  A    between atoms: C_4  and  C_5
    5  A    between atoms: C_5  and  C_6
    6  A    between atoms: C_5  and  O_8
    7  A    between atoms: C_6  and  C_7
    8  A    between atoms: O_8  and  C_9
    9  A    between atoms: C_9  and  C_11
   10  A    between atoms: C_12  and  C_13
   11  A    between atoms: C_16  and  O_17
   12  A    between atoms: O_17  and  C_18
                            x       y       z     vdW  Elec       q    Type
                         _______ _______ _______ _____ _____    ______ ____

>  <TORSDO>
F 9

$$$$
s3_esm2_f4_ligand
 OpenBabel10092621063D

 20 20  0  0  1  0  0  0  0  0999 V2000
   -4.1650   -0.3130    7.7320 C   0  0  0  0  0  0  0  0  0  0  0  0
   -3.1930    0.3070    8.0710 O   0  0  0  0  0  0  0  0  0  0  0  0
   -4.1500   -1.7550    7.5050 C   0  0  0  0  0  3  0  0  0  0  0  0
   -4.1440   -2.2510    6.2730 C   0  0  0  0  0  3  0  0  0  0  0  0
   -3.9210   -3.6820    5.9740 C   0  0  0  0  0  0  0  0  0  0  0  0
   -3.1770   -4.4830    6.8160 C   0  0  0  0  0  3  0  0  0  0  0  0
   -2.9560   -5.8090    6.4920 C   0  0  0  0  0  3  0  0  0  0  0  0
   -3.4640   -6.3430    5.3460 C   0  0  0  0  0  0  0  0  0  0  0  0
   -4.2150   -5.5470    4.5060 C   0  0  0  0  0  3  0  0  0  0  0  0
   -4.4380   -4.2230    4.8270 C   0  0  0  0  0  3  0  0  0  0  0  0
   -3.2180   -7.6400    5.0590 O   0  0  0  0  0  0  0  0  0  0  0  0
   -3.0140   -8.0390    3.7140 C   0  0  0  0  0  1  0  0  0  0  0  0
   -5.3590    0.2930    7.5060 O   0  0  0  0  0  0  0  0  0  0  0  0
   -5.3770    1.5870    6.9340 C   0  0  1  0  0  3  0  0  0  0  0  0
   -6.0110    1.5410    5.5640 C   0  0  0  0  0  2  0  0  0  0  0  0
   -6.7510    0.2710    5.2630 C   0  0  0  0  0  1  0  0  0  0  0  0
   -6.1770    2.5210    7.8330 C   0  0  0  0  0  2  0  0  0  0  0  0
   -5.2800    3.4500    8.6000 C   0  0  0  0  0  2  0  0  0  0  0  0
   -4.1690    5.1380    7.1300 C   0  0  0  0  0  1  0  0  0  0  0  0
   -4.0350    3.7730    7.8130 C   0  0  0  0  0  2  0  0  0  0  0  0
  1  2  2  0  0  0  0
  3  1  1  0  0  0  0
  4  3  2  0  0  0  0
  5  4  1  0  0  0  0
  5  6  1  0  0  0  0
  7  6  2  0  0  0  0
  8  7  1  0  0  0  0
  9 10  1  0  0  0  0
  9  8  2  0  0  0  0
 10  5  2  0  0  0  0
 11  8  1  0  0  0  0
 12 11  1  0  0  0  0
 13  1  1  0  0  0  0
 14 15  1  6  0  0  0
 14 13  1  0  0  0  0
 14 17  1  0  0  0  0
 16 15  1  0  0  0  0
 17 18  1  0  0  0  0
 19 20  1  0  0  0  0
 20 18  1  0  0  0  0
M  END
>  <MODEL>
7

>  <REMARK>
 VINA RESULT:      -3.8      3.101      7.591
  Name = s3_esm2_f4_ligand
  12 active torsions:
  status: ('A' for Active; 'I' for Inactive)
    1  A    between atoms: C_1  and  C_2
    2  A    between atoms: C_2  and  C_3
    3  A    between atoms: C_3  and  C_4
    4  A    between atoms: C_4  and  C_5
    5  A    between atoms: C_5  and  C_6
    6  A    between atoms: C_5  and  O_8
    7  A    between atoms: C_6  and  C_7
    8  A    between atoms: O_8  and  C_9
    9  A    between atoms: C_9  and  C_11
   10  A    between atoms: C_12  and  C_13
   11  A    between atoms: C_16  and  O_17
   12  A    between atoms: O_17  and  C_18
                            x       y       z     vdW  Elec       q    Type
                         _______ _______ _______ _____ _____    ______ ____

>  <TORSDO>
F 9

$$$$
s3_esm2_f4_ligand
 OpenBabel10092621063D

 20 20  0  0  1  0  0  0  0  0999 V2000
   -3.9880   -0.7730    6.9770 C   0  0  0  0  0  0  0  0  0  0  0  0
   -3.0980   -0.3700    7.6750 O   0  0  0  0  0  0  0  0  0  0  0  0
   -3.8650   -1.9580    6.1320 C   0  0  0  0  0  3  0  0  0  0  0  0
   -3.6350   -3.1530    6.6640 C   0  0  0  0  0  3  0  0  0  0  0  0
   -3.7060   -4.4130    5.8930 C   0  0  0  0  0  0  0  0  0  0  0  0
   -4.3290   -4.4660    4.6620 C   0  0  0  0  0  3  0  0  0  0  0  0
   -4.4110   -5.6660    3.9800 C   0  0  0  0  0  3  0  0  0  0  0  0
   -3.8820   -6.8070    4.5060 C   0  0  0  0  0  0  0  0  0  0  0  0
   -3.2520   -6.7550    5.7330 C   0  0  0  0  0  3  0  0  0  0  0  0
   -3.1680   -5.5590    6.4150 C   0  0  0  0  0  3  0  0  0  0  0  0
   -3.9910   -7.9620    3.8150 O   0  0  0  0  0  0  0  0  0  0  0  0
   -3.5650   -9.1800    4.4030 C   0  0  0  0  0  1  0  0  0  0  0  0
   -5.1840   -0.1340    6.9000 O   0  0  0  0  0  0  0  0  0  0  0  0
   -5.5580    0.4820    5.6820 C   0  0  1  0  0  3  0  0  0  0  0  0
   -6.7250   -0.2530    5.0640 C   0  0  0  0  0  2  0  0  0  0  0  0
   -7.6760    0.6210    4.3000 C   0  0  0  0  0  1  0  0  0  0  0  0
   -5.9550    1.9270    5.9530 C   0  0  0  0  0  2  0  0  0  0  0  0
   -6.1260    2.1850    7.4230 C   0  0  0  0  0  2  0  0  0  0  0  0
   -7.7490    2.4230    9.3080 C   0  0  0  0  0  1  0  0  0  0  0  0
   -7.5740    2.0670    7.8290 C   0  0  0  0  0  2  0  0  0  0  0  0
  1  2  2  0  0  0  0
  3  4  2  0  0  0  0
  3  1  1  0  0  0  0
  5 10  1  0  0  0  0
  5  4  1  0  0  0  0
  6  5  2  0  0  0  0
  7  8  2  0  0  0  0
  7  6  1  0  0  0  0
  8  9  1  0  0  0  0
  9 10  2  0  0  0  0
 11 12  1  0  0  0  0
 11  8  1  0  0  0  0
 13  1  1  0  0  0  0
 14 15  1  1  0  0  0
 14 17  1  0  0  0  0
 14 13  1  0  0  0  0
 16 15  1  0  0  0  0
 17 18  1  0  0  0  0
 18 20  1  0  0  0  0
 20 19  1  0  0  0  0
M  END
>  <MODEL>
8

>  <REMARK>
 VINA RESULT:      -3.7      3.328      7.803
  Name = s3_esm2_f4_ligand
  12 active torsions:
  status: ('A' for Active; 'I' for Inactive)
    1  A    between atoms: C_1  and  C_2
    2  A    between atoms: C_2  and  C_3
    3  A    between atoms: C_3  and  C_4
    4  A    between atoms: C_4  and  C_5
    5  A    between atoms: C_5  and  C_6
    6  A    between atoms: C_5  and  O_8
    7  A    between atoms: C_6  and  C_7
    8  A    between atoms: O_8  and  C_9
    9  A    between atoms: C_9  and  C_11
   10  A    between atoms: C_12  and  C_13
   11  A    between atoms: C_16  and  O_17
   12  A    between atoms: O_17  and  C_18
                            x       y       z     vdW  Elec       q    Type
                         _______ _______ _______ _____ _____    ______ ____

>  <TORSDO>
F 9

$$$$
s3_esm2_f4_ligand
 OpenBabel10092621063D

 20 20  0  0  1  0  0  0  0  0999 V2000
   -6.0560    1.1840    5.4450 C   0  0  0  0  0  0  0  0  0  0  0  0
   -7.0700    1.1920    4.8020 O   0  0  0  0  0  0  0  0  0  0  0  0
   -5.2260   -0.0060    5.6090 C   0  0  0  0  0  3  0  0  0  0  0  0
   -5.7590   -1.1620    5.9890 C   0  0  0  0  0  3  0  0  0  0  0  0
   -5.0190   -2.4420    5.9720 C   0  0  0  0  0  0  0  0  0  0  0  0
   -5.4390   -3.5030    5.1940 C   0  0  0  0  0  3  0  0  0  0  0  0
   -4.7470   -4.6990    5.2260 C   0  0  0  0  0  3  0  0  0  0  0  0
   -3.6490   -4.8520    6.0180 C   0  0  0  0  0  0  0  0  0  0  0  0
   -3.2220   -3.7910    6.7910 C   0  0  0  0  0  3  0  0  0  0  0  0
   -3.9100   -2.5950    6.7610 C   0  0  0  0  0  3  0  0  0  0  0  0
   -3.0060   -6.0390    6.0300 O   0  0  0  0  0  0  0  0  0  0  0  0
   -3.3400   -7.0330    5.0750 C   0  0  0  0  0  1  0  0  0  0  0  0
   -5.6120    2.2880    6.0990 O   0  0  0  0  0  0  0  0  0  0  0  0
   -5.4390    2.2350    7.5030 C   0  0  1  0  0  3  0  0  0  0  0  0
   -4.4210    3.2620    7.9420 C   0  0  0  0  0  2  0  0  0  0  0  0
   -4.3800    4.4980    7.0930 C   0  0  0  0  0  1  0  0  0  0  0  0
   -6.7720    2.5190    8.1830 C   0  0  0  0  0  2  0  0  0  0  0  0
   -7.1820    1.3900    9.0860 C   0  0  0  0  0  2  0  0  0  0  0  0
   -9.2110    1.2250    7.6370 C   0  0  0  0  0  1  0  0  0  0  0  0
   -8.1210    0.4450    8.3790 C   0  0  0  0  0  2  0  0  0  0  0  0
  1  3  1  0  0  0  0
  1 13  1  0  0  0  0
  2  1  2  0  0  0  0
  3  4  2  0  0  0  0
  5  4  1  0  0  0  0
  5 10  1  0  0  0  0
  6  7  1  0  0  0  0
  6  5  2  0  0  0  0
  7  8  2  0  0  0  0
  8 11  1  0  0  0  0
  8  9  1  0  0  0  0
 10  9  2  0  0  0  0
 12 11  1  0  0  0  0
 13 14  1  0  0  0  0
 14 15  1  1  0  0  0
 14 17  1  0  0  0  0
 16 15  1  0  0  0  0
 17 18  1  0  0  0  0
 19 20  1  0  0  0  0
 20 18  1  0  0  0  0
M  END
>  <MODEL>
9

>  <REMARK>
 VINA RESULT:      -3.7      2.513      6.676
  Name = s3_esm2_f4_ligand
  12 active torsions:
  status: ('A' for Active; 'I' for Inactive)
    1  A    between atoms: C_1  and  C_2
    2  A    between atoms: C_2  and  C_3
    3  A    between atoms: C_3  and  C_4
    4  A    between atoms: C_4  and  C_5
    5  A    between atoms: C_5  and  C_6
    6  A    between atoms: C_5  and  O_8
    7  A    between atoms: C_6  and  C_7
    8  A    between atoms: O_8  and  C_9
    9  A    between atoms: C_9  and  C_11
   10  A    between atoms: C_12  and  C_13
   11  A    between atoms: C_16  and  O_17
   12  A    between atoms: O_17  and  C_18
                            x       y       z     vdW  Elec       q    Type
                         _______ _______ _______ _____ _____    ______ ____

>  <TORSDO>
F 9

$$$$
