bgox31_4_ligand
 OpenBabel10092621253D

 18 19  0  0  0  0  0  0  0  0999 V2000
    1.8590    3.3890   -7.4070 C   0  0  0  0  0  0  0  0  0  0  0  0
    2.4040    2.6820   -6.3710 C   0  0  0  0  0  3  0  0  0  0  0  0
    3.0480    1.4110   -6.5950 C   0  0  0  0  0  3  0  0  0  0  0  0
    3.0310    0.9150   -7.9060 C   0  0  0  0  0  0  0  0  0  0  0  0
    2.4880    1.6630   -8.9440 C   0  0  0  0  0  0  0  0  0  0  0  0
    1.8780    2.9110   -8.7190 C   0  0  0  0  0  3  0  0  0  0  0  0
    2.1510    5.7580   -7.3450 C   0  0  0  0  0  1  0  0  0  0  0  0
    1.2870    4.6080   -7.1440 O   0  0  0  0  0  0  0  0  0  0  0  0
    3.6610   -0.4000   -8.1170 C   0  0  0  0  0  0  0  0  0  0  0  0
    2.9560   -1.2770   -8.7190 O   0  0  0  0  0  0  0  0  0  0  0  0
    5.0830   -0.6820   -7.9100 C   0  0  0  0  0  0  0  0  0  0  0  0
    5.4400   -2.0220   -7.7100 C   0  0  0  0  0  3  0  0  0  0  0  0
    6.7840   -2.3340   -7.4160 C   0  0  0  0  0  3  0  0  0  0  0  0
    7.6850   -1.3330   -7.2340 C   0  0  0  0  0  3  0  0  0  0  0  0
    7.3410    0.0020   -7.3630 C   0  0  0  0  0  3  0  0  0  0  0  0
    6.0130    0.3520   -7.6790 C   0  0  0  0  0  3  0  0  0  0  0  0
    2.5270    1.1150  -10.2380 O   0  0  0  0  0  0  0  0  0  0  0  0
    3.1870    1.4490  -10.8980 H   0  0  0  0  0  0  0  0  0  0  0  0
  1  8  1  0  0  0  0
  1  2  1  0  0  0  0
  3  2  2  0  0  0  0
  4  3  1  0  0  0  0
  5  6  1  0  0  0  0
  5  4  2  0  0  0  0
  6  1  2  0  0  0  0
  7  8  1  0  0  0  0
  9 11  1  0  0  0  0
  9  4  1  0  0  0  0
 10  9  2  0  0  0  0
 11 12  2  0  0  0  0
 11 16  1  0  0  0  0
 12 13  1  0  0  0  0
 13 14  2  0  0  0  0
 15 14  1  0  0  0  0
 16 15  2  0  0  0  0
 17  5  1  0  0  0  0
 18 17  1  0  0  0  0
M  END
>  <MODEL>
1

>  <REMARK>
 VINA RESULT:      -4.7      0.000      0.000
  Name = bgox31_4_ligand
  5 active torsions:
  status: ('A' for Active; 'I' for Inactive)
    1  A    between atoms: C_1  and  O_2
    2  A    between atoms: O_2  and  C_3
    3  A    between atoms: C_6  and  C_7
    4  A    between atoms: C_7  and  C_9
    5  A    between atoms: C_15  and  O_16
                            x       y       z     vdW  Elec       q    Type
                         _______ _______ _______ _____ _____    ______ ____

>  <TORSDO>
F 4

$$$$
bgox31_4_ligand
 OpenBabel10092621253D

 18 19  0  0  0  0  0  0  0  0999 V2000
    3.1590    6.2740   -8.6050 C   0  0  0  0  0  0  0  0  0  0  0  0
    4.4220    5.7560   -8.5260 C   0  0  0  0  0  3  0  0  0  0  0  0
    4.6750    4.5110   -7.8450 C   0  0  0  0  0  3  0  0  0  0  0  0
    3.5810    3.8960   -7.2220 C   0  0  0  0  0  0  0  0  0  0  0  0
    2.3040    4.4310   -7.3340 C   0  0  0  0  0  0  0  0  0  0  0  0
    2.0630    5.6380   -8.0170 C   0  0  0  0  0  3  0  0  0  0  0  0
    2.1900    7.3300  -10.5150 C   0  0  0  0  0  1  0  0  0  0  0  0
    2.9660    7.4450   -9.2920 O   0  0  0  0  0  0  0  0  0  0  0  0
    3.8580    2.6420   -6.4990 C   0  0  0  0  0  0  0  0  0  0  0  0
    3.6150    2.6430   -5.2460 O   0  0  0  0  0  0  0  0  0  0  0  0
    4.1500    1.3600   -7.1440 C   0  0  0  0  0  0  0  0  0  0  0  0
    3.0710    0.4860   -7.3320 C   0  0  0  0  0  3  0  0  0  0  0  0
    3.3160   -0.7970   -7.8660 C   0  0  0  0  0  3  0  0  0  0  0  0
    4.5930   -1.1990   -8.0960 C   0  0  0  0  0  3  0  0  0  0  0  0
    5.6810   -0.3750   -7.8590 C   0  0  0  0  0  3  0  0  0  0  0  0
    5.4740    0.9210   -7.3460 C   0  0  0  0  0  3  0  0  0  0  0  0
    1.2480    3.7490   -6.7040 O   0  0  0  0  0  0  0  0  0  0  0  0
    0.8600    2.9410   -7.1250 H   0  0  0  0  0  0  0  0  0  0  0  0
  1  2  2  0  0  0  0
  1  6  1  0  0  0  0
  2  3  1  0  0  0  0
  3  4  2  0  0  0  0
  4  9  1  0  0  0  0
  5  4  1  0  0  0  0
  5 17  1  0  0  0  0
  6  5  2  0  0  0  0
  7  8  1  0  0  0  0
  8  1  1  0  0  0  0
  9 10  2  0  0  0  0
 11  9  1  0  0  0  0
 12 11  1  0  0  0  0
 13 12  2  0  0  0  0
 14 13  1  0  0  0  0
 14 15  2  0  0  0  0
 15 16  1  0  0  0  0
 16 11  2  0  0  0  0
 18 17  1  0  0  0  0
M  END
>  <MODEL>
2

>  <REMARK>
 VINA RESULT:      -4.5      2.185      3.487
  Name = bgox31_4_ligand
  5 active torsions:
  status: ('A' for Active; 'I' for Inactive)
    1  A    between atoms: C_1  and  O_2
    2  A    between atoms: O_2  and  C_3
    3  A    between atoms: C_6  and  C_7
    4  A    between atoms: C_7  and  C_9
    5  A    between atoms: C_15  and  O_16
                            x       y       z     vdW  Elec       q    Type
                         _______ _______ _______ _____ _____    ______ ____

>  <TORSDO>
F 4

$$$$
bgox31_4_ligand
 OpenBabel10092621253D

 18 19  0  0  0  0  0  0  0  0999 V2000
    4.2030    6.4950   -7.0800 C   0  0  0  0  0  0  0  0  0  0  0  0
    5.2620    5.7280   -6.6760 C   0  0  0  0  0  3  0  0  0  0  0  0
    5.0920    4.3300   -6.3690 C   0  0  0  0  0  3  0  0  0  0  0  0
    3.7890    3.8170   -6.4460 C   0  0  0  0  0  0  0  0  0  0  0  0
    2.7360    4.6120   -6.8790 C   0  0  0  0  0  0  0  0  0  0  0  0
    2.9130    5.9720   -7.1950 C   0  0  0  0  0  3  0  0  0  0  0  0
    5.6360    8.3900   -6.8380 C   0  0  0  0  0  1  0  0  0  0  0  0
    4.4240    7.8120   -7.3920 O   0  0  0  0  0  0  0  0  0  0  0  0
    3.6230    2.3960   -6.0950 C   0  0  0  0  0  0  0  0  0  0  0  0
    2.9250    2.1450   -5.0570 O   0  0  0  0  0  0  0  0  0  0  0  0
    3.9850    1.2780   -6.9700 C   0  0  0  0  0  0  0  0  0  0  0  0
    2.9740    0.3570   -7.2720 C   0  0  0  0  0  3  0  0  0  0  0  0
    3.2960   -0.7850   -8.0370 C   0  0  0  0  0  3  0  0  0  0  0  0
    4.5880   -1.0240   -8.3800 C   0  0  0  0  0  3  0  0  0  0  0  0
    5.6160   -0.1610   -8.0380 C   0  0  0  0  0  3  0  0  0  0  0  0
    5.3290    1.0020   -7.2950 C   0  0  0  0  0  3  0  0  0  0  0  0
    1.4600    4.0270   -6.9570 O   0  0  0  0  0  0  0  0  0  0  0  0
    0.7800    4.4000   -7.5730 H   0  0  0  0  0  0  0  0  0  0  0  0
  1  2  1  0  0  0  0
  2  3  2  0  0  0  0
  4  3  1  0  0  0  0
  4  9  1  0  0  0  0
  5  4  2  0  0  0  0
  6  1  2  0  0  0  0
  6  5  1  0  0  0  0
  8  1  1  0  0  0  0
  8  7  1  0  0  0  0
  9 10  2  0  0  0  0
 11  9  1  0  0  0  0
 12 11  1  0  0  0  0
 13 12  2  0  0  0  0
 14 15  2  0  0  0  0
 14 13  1  0  0  0  0
 15 16  1  0  0  0  0
 16 11  2  0  0  0  0
 17  5  1  0  0  0  0
 18 17  1  0  0  0  0
M  END
>  <MODEL>
3

>  <REMARK>
 VINA RESULT:      -4.5      2.293      3.660
  Name = bgox31_4_ligand
  5 active torsions:
  status: ('A' for Active; 'I' for Inactive)
    1  A    between atoms: C_1  and  O_2
    2  A    between atoms: O_2  and  C_3
    3  A    between atoms: C_6  and  C_7
    4  A    between atoms: C_7  and  C_9
    5  A    between atoms: C_15  and  O_16
                            x       y       z     vdW  Elec       q    Type
                         _______ _______ _______ _____ _____    ______ ____

>  <TORSDO>
F 4

$$$$
bgox31_4_ligand
 OpenBabel10092621253D

 18 19  0  0  0  0  0  0  0  0999 V2000
    4.5040    6.5690   -6.6150 C   0  0  0  0  0  0  0  0  0  0  0  0
    4.2670    5.7380   -7.6750 C   0  0  0  0  0  3  0  0  0  0  0  0
    3.9420    4.3480   -7.4720 C   0  0  0  0  0  3  0  0  0  0  0  0
    3.9410    3.8840   -6.1490 C   0  0  0  0  0  0  0  0  0  0  0  0
    4.1640    4.7540   -5.0890 C   0  0  0  0  0  0  0  0  0  0  0  0
    4.4630    6.1140   -5.2950 C   0  0  0  0  0  3  0  0  0  0  0  0
    4.3210    8.8220   -5.8440 C   0  0  0  0  0  1  0  0  0  0  0  0
    4.7770    7.8910   -6.8610 O   0  0  0  0  0  0  0  0  0  0  0  0
    3.6410    2.4550   -5.9560 C   0  0  0  0  0  0  0  0  0  0  0  0
    2.8070    2.1680   -5.0340 O   0  0  0  0  0  0  0  0  0  0  0  0
    4.0360    1.3920   -6.8830 C   0  0  0  0  0  0  0  0  0  0  0  0
    3.0610    0.4400   -7.2060 C   0  0  0  0  0  3  0  0  0  0  0  0
    3.4180   -0.6540   -8.0240 C   0  0  0  0  0  3  0  0  0  0  0  0
    4.7130   -0.8190   -8.4020 C   0  0  0  0  0  3  0  0  0  0  0  0
    5.7070    0.0760   -8.0420 C   0  0  0  0  0  3  0  0  0  0  0  0
    5.3840    1.1920   -7.2450 C   0  0  0  0  0  3  0  0  0  0  0  0
    4.1240    4.2260   -3.7860 O   0  0  0  0  0  0  0  0  0  0  0  0
    3.7420    3.3260   -3.6280 H   0  0  0  0  0  0  0  0  0  0  0  0
  1  6  1  0  0  0  0
  2  3  1  0  0  0  0
  2  1  2  0  0  0  0
  3  4  2  0  0  0  0
  4  9  1  0  0  0  0
  4  5  1  0  0  0  0
  5 17  1  0  0  0  0
  6  5  2  0  0  0  0
  8  1  1  0  0  0  0
  8  7  1  0  0  0  0
  9 10  2  0  0  0  0
 11  9  1  0  0  0  0
 12 11  1  0  0  0  0
 13 12  2  0  0  0  0
 14 15  2  0  0  0  0
 14 13  1  0  0  0  0
 15 16  1  0  0  0  0
 16 11  2  0  0  0  0
 17 18  1  0  0  0  0
M  END
>  <MODEL>
4

>  <REMARK>
 VINA RESULT:      -4.5      2.616      4.133
  Name = bgox31_4_ligand
  5 active torsions:
  status: ('A' for Active; 'I' for Inactive)
    1  A    between atoms: C_1  and  O_2
    2  A    between atoms: O_2  and  C_3
    3  A    between atoms: C_6  and  C_7
    4  A    between atoms: C_7  and  C_9
    5  A    between atoms: C_15  and  O_16
                            x       y       z     vdW  Elec       q    Type
                         _______ _______ _______ _____ _____    ______ ____

>  <TORSDO>
F 4

$$$$
bgox31_4_ligand
 OpenBabel10092621253D

 18 19  0  0  0  0  0  0  0  0999 V2000
    2.4660    6.2600   -7.5510 C   0  0  0  0  0  0  0  0  0  0  0  0
    1.7540    5.1860   -8.0100 C   0  0  0  0  0  3  0  0  0  0  0  0
    2.0180    3.8550   -7.5200 C   0  0  0  0  0  3  0  0  0  0  0  0
    3.0710    3.7140   -6.6060 C   0  0  0  0  0  0  0  0  0  0  0  0
    3.7650    4.8240   -6.1410 C   0  0  0  0  0  0  0  0  0  0  0  0
    3.4890    6.1220   -6.6100 C   0  0  0  0  0  3  0  0  0  0  0  0
    1.8900    8.5130   -7.0080 C   0  0  0  0  0  1  0  0  0  0  0  0
    2.1540    7.5090   -8.0240 O   0  0  0  0  0  0  0  0  0  0  0  0
    3.3550    2.3450   -6.1400 C   0  0  0  0  0  0  0  0  0  0  0  0
    2.8970    2.0300   -4.9910 O   0  0  0  0  0  0  0  0  0  0  0  0
    3.8960    1.2770   -6.9830 C   0  0  0  0  0  0  0  0  0  0  0  0
    3.0350    0.2150   -7.2900 C   0  0  0  0  0  3  0  0  0  0  0  0
    3.5370   -0.8810   -8.0240 C   0  0  0  0  0  3  0  0  0  0  0  0
    4.8590   -0.9370   -8.3340 C   0  0  0  0  0  3  0  0  0  0  0  0
    5.7420    0.0710   -7.9860 C   0  0  0  0  0  3  0  0  0  0  0  0
    5.2730    1.1920   -7.2730 C   0  0  0  0  0  3  0  0  0  0  0  0
    4.7930    4.6110   -5.2060 O   0  0  0  0  0  0  0  0  0  0  0  0
    5.3200    3.7720   -5.2310 H   0  0  0  0  0  0  0  0  0  0  0  0
  1  6  1  0  0  0  0
  2  1  2  0  0  0  0
  2  3  1  0  0  0  0
  3  4  2  0  0  0  0
  4  5  1  0  0  0  0
  4  9  1  0  0  0  0
  5 17  1  0  0  0  0
  6  5  2  0  0  0  0
  8  1  1  0  0  0  0
  8  7  1  0  0  0  0
  9 10  2  0  0  0  0
 11  9  1  0  0  0  0
 12 11  2  0  0  0  0
 13 12  1  0  0  0  0
 14 13  2  0  0  0  0
 14 15  1  0  0  0  0
 15 16  2  0  0  0  0
 16 11  1  0  0  0  0
 18 17  1  0  0  0  0
M  END
>  <MODEL>
5

>  <REMARK>
 VINA RESULT:      -4.4      2.335      3.538
  Name = bgox31_4_ligand
  5 active torsions:
  status: ('A' for Active; 'I' for Inactive)
    1  A    between atoms: C_1  and  O_2
    2  A    between atoms: O_2  and  C_3
    3  A    between atoms: C_6  and  C_7
    4  A    between atoms: C_7  and  C_9
    5  A    between atoms: C_15  and  O_16
                            x       y       z     vdW  Elec       q    Type
                         _______ _______ _______ _____ _____    ______ ____

>  <TORSDO>
F 4

$$$$
bgox31_4_ligand
 OpenBabel10092621253D

 18 19  0  0  0  0  0  0  0  0999 V2000
   -1.1280   -1.2560  -12.6510 C   0  0  0  0  0  0  0  0  0  0  0  0
   -0.0820   -2.0530  -12.2750 C   0  0  0  0  0  3  0  0  0  0  0  0
    1.1210   -1.4870  -11.7160 C   0  0  0  0  0  3  0  0  0  0  0  0
    1.1850   -0.0890  -11.6350 C   0  0  0  0  0  0  0  0  0  0  0  0
    0.1010    0.6970  -12.0050 C   0  0  0  0  0  0  0  0  0  0  0  0
   -1.0770    0.1350  -12.5330 C   0  0  0  0  0  3  0  0  0  0  0  0
   -2.2850   -3.2970  -13.0930 C   0  0  0  0  0  1  0  0  0  0  0  0
   -2.2620   -1.8460  -13.1480 O   0  0  0  0  0  0  0  0  0  0  0  0
    2.4330    0.4790  -11.0950 C   0  0  0  0  0  0  0  0  0  0  0  0
    3.2040    1.0560  -11.9320 O   0  0  0  0  0  0  0  0  0  0  0  0
    2.7210    0.6390   -9.6680 C   0  0  0  0  0  0  0  0  0  0  0  0
    3.2490   -0.4740   -9.0010 C   0  0  0  0  0  3  0  0  0  0  0  0
    3.4590   -0.3990   -7.6070 C   0  0  0  0  0  3  0  0  0  0  0  0
    3.0590    0.7050   -6.9230 C   0  0  0  0  0  3  0  0  0  0  0  0
    2.4760    1.7930   -7.5520 C   0  0  0  0  0  3  0  0  0  0  0  0
    2.2710    1.7630   -8.9460 C   0  0  0  0  0  3  0  0  0  0  0  0
    0.2250    2.0910  -11.8750 O   0  0  0  0  0  0  0  0  0  0  0  0
    0.2150    2.5080  -10.9760 H   0  0  0  0  0  0  0  0  0  0  0  0
  1  6  2  0  0  0  0
  1  2  1  0  0  0  0
  2  3  2  0  0  0  0
  3  4  1  0  0  0  0
  4  9  1  0  0  0  0
  5 17  1  0  0  0  0
  5  4  2  0  0  0  0
  6  5  1  0  0  0  0
  8  7  1  0  0  0  0
  8  1  1  0  0  0  0
  9 11  1  0  0  0  0
 10  9  2  0  0  0  0
 11 12  2  0  0  0  0
 11 16  1  0  0  0  0
 12 13  1  0  0  0  0
 13 14  2  0  0  0  0
 15 14  1  0  0  0  0
 16 15  2  0  0  0  0
 17 18  1  0  0  0  0
M  END
>  <MODEL>
6

>  <REMARK>
 VINA RESULT:      -4.4      3.986      5.893
  Name = bgox31_4_ligand
  5 active torsions:
  status: ('A' for Active; 'I' for Inactive)
    1  A    between atoms: C_1  and  O_2
    2  A    between atoms: O_2  and  C_3
    3  A    between atoms: C_6  and  C_7
    4  A    between atoms: C_7  and  C_9
    5  A    between atoms: C_15  and  O_16
                            x       y       z     vdW  Elec       q    Type
                         _______ _______ _______ _____ _____    ______ ____

>  <TORSDO>
F 4

$$$$
bgox31_4_ligand
 OpenBabel10092621253D

 18 19  0  0  0  0  0  0  0  0999 V2000
    6.2060    6.5550   -4.7840 C   0  0  0  0  0  0  0  0  0  0  0  0
    6.0950    6.4030   -6.1390 C   0  0  0  0  0  3  0  0  0  0  0  0
    5.1580    5.4660   -6.7080 C   0  0  0  0  0  3  0  0  0  0  0  0
    4.4200    4.6830   -5.8090 C   0  0  0  0  0  0  0  0  0  0  0  0
    4.5360    4.8720   -4.4380 C   0  0  0  0  0  0  0  0  0  0  0  0
    5.4400    5.8030   -3.8910 C   0  0  0  0  0  3  0  0  0  0  0  0
    7.2140    8.7000   -5.0800 C   0  0  0  0  0  1  0  0  0  0  0  0
    7.0890    7.4840   -4.2950 O   0  0  0  0  0  0  0  0  0  0  0  0
    3.4920    3.7050   -6.4020 C   0  0  0  0  0  0  0  0  0  0  0  0
    2.3870    4.1650   -6.8450 O   0  0  0  0  0  0  0  0  0  0  0  0
    3.8440    2.3220   -6.7300 C   0  0  0  0  0  0  0  0  0  0  0  0
    5.1850    2.0680   -7.0440 C   0  0  0  0  0  3  0  0  0  0  0  0
    5.5580    0.7690   -7.4550 C   0  0  0  0  0  3  0  0  0  0  0  0
    4.6030   -0.1810   -7.6340 C   0  0  0  0  0  3  0  0  0  0  0  0
    3.2620    0.0650   -7.3910 C   0  0  0  0  0  3  0  0  0  0  0  0
    2.8550    1.3430   -6.9580 C   0  0  0  0  0  3  0  0  0  0  0  0
    3.7470    4.0700   -3.5950 O   0  0  0  0  0  0  0  0  0  0  0  0
    4.1030    3.2100   -3.2540 H   0  0  0  0  0  0  0  0  0  0  0  0
  1  8  1  0  0  0  0
  1  6  1  0  0  0  0
  2  1  2  0  0  0  0
  3  2  1  0  0  0  0
  3  4  2  0  0  0  0
  4  5  1  0  0  0  0
  5  6  2  0  0  0  0
  5 17  1  0  0  0  0
  7  8  1  0  0  0  0
  9  4  1  0  0  0  0
 10  9  2  0  0  0  0
 11  9  1  0  0  0  0
 12 11  2  0  0  0  0
 13 12  1  0  0  0  0
 14 13  2  0  0  0  0
 14 15  1  0  0  0  0
 15 16  2  0  0  0  0
 16 11  1  0  0  0  0
 17 18  1  0  0  0  0
M  END
>  <MODEL>
7

>  <REMARK>
 VINA RESULT:      -4.2      3.552      5.204
  Name = bgox31_4_ligand
  5 active torsions:
  status: ('A' for Active; 'I' for Inactive)
    1  A    between atoms: C_1  and  O_2
    2  A    between atoms: O_2  and  C_3
    3  A    between atoms: C_6  and  C_7
    4  A    between atoms: C_7  and  C_9
    5  A    between atoms: C_15  and  O_16
                            x       y       z     vdW  Elec       q    Type
                         _______ _______ _______ _____ _____    ______ ____

>  <TORSDO>
F 4

$$$$
bgox31_4_ligand
 OpenBabel10092621253D

 18 19  0  0  0  0  0  0  0  0999 V2000
    5.7330    5.5360   -6.4690 C   0  0  0  0  0  0  0  0  0  0  0  0
    5.5490    4.4360   -5.6760 C   0  0  0  0  0  3  0  0  0  0  0  0
    4.4720    3.5100   -5.9280 C   0  0  0  0  0  3  0  0  0  0  0  0
    3.5970    3.8250   -6.9770 C   0  0  0  0  0  0  0  0  0  0  0  0
    3.8190    4.9370   -7.7800 C   0  0  0  0  0  0  0  0  0  0  0  0
    4.8830    5.8260   -7.5390 C   0  0  0  0  0  3  0  0  0  0  0  0
    7.9820    5.7170   -5.6860 C   0  0  0  0  0  1  0  0  0  0  0  0
    6.7920    6.3680   -6.2080 O   0  0  0  0  0  0  0  0  0  0  0  0
    2.4810    2.8910   -7.2010 C   0  0  0  0  0  0  0  0  0  0  0  0
    1.3110    3.3310   -6.9430 O   0  0  0  0  0  0  0  0  0  0  0  0
    2.5970    1.6150   -7.9110 C   0  0  0  0  0  0  0  0  0  0  0  0
    3.0850    0.5250   -7.1790 C   0  0  0  0  0  3  0  0  0  0  0  0
    3.3000   -0.7020   -7.8420 C   0  0  0  0  0  3  0  0  0  0  0  0
    3.1270   -0.7810   -9.1870 C   0  0  0  0  0  3  0  0  0  0  0  0
    2.7060    0.3000   -9.9430 C   0  0  0  0  0  3  0  0  0  0  0  0
    2.4590    1.5360   -9.3120 C   0  0  0  0  0  3  0  0  0  0  0  0
    2.9160    5.1790   -8.8300 O   0  0  0  0  0  0  0  0  0  0  0  0
    2.9850    6.0130   -9.3600 H   0  0  0  0  0  0  0  0  0  0  0  0
  1  8  1  0  0  0  0
  1  2  1  0  0  0  0
  3  2  2  0  0  0  0
  4  3  1  0  0  0  0
  5  6  1  0  0  0  0
  5  4  2  0  0  0  0
  6  1  2  0  0  0  0
  8  7  1  0  0  0  0
  9  4  1  0  0  0  0
  9 10  2  0  0  0  0
 11  9  1  0  0  0  0
 11 12  1  0  0  0  0
 13 12  2  0  0  0  0
 14 13  1  0  0  0  0
 15 16  1  0  0  0  0
 15 14  2  0  0  0  0
 16 11  2  0  0  0  0
 17  5  1  0  0  0  0
 18 17  1  0  0  0  0
M  END
>  <MODEL>
8

>  <REMARK>
 VINA RESULT:      -4.1      2.777      4.350
  Name = bgox31_4_ligand
  5 active torsions:
  status: ('A' for Active; 'I' for Inactive)
    1  A    between atoms: C_1  and  O_2
    2  A    between atoms: O_2  and  C_3
    3  A    between atoms: C_6  and  C_7
    4  A    between atoms: C_7  and  C_9
    5  A    between atoms: C_15  and  O_16
                            x       y       z     vdW  Elec       q    Type
                         _______ _______ _______ _____ _____    ______ ____

>  <TORSDO>
F 4

$$$$
bgox31_4_ligand
 OpenBabel10092621253D

 18 19  0  0  0  0  0  0  0  0999 V2000
    5.3220    6.3060   -7.2300 C   0  0  0  0  0  0  0  0  0  0  0  0
    4.7630    5.9040   -8.4110 C   0  0  0  0  0  3  0  0  0  0  0  0
    3.8010    4.8290   -8.4500 C   0  0  0  0  0  3  0  0  0  0  0  0
    3.5210    4.1860   -7.2370 C   0  0  0  0  0  0  0  0  0  0  0  0
    4.0870    4.6280   -6.0480 C   0  0  0  0  0  0  0  0  0  0  0  0
    5.0110    5.6900   -6.0160 C   0  0  0  0  0  3  0  0  0  0  0  0
    5.6130    8.6730   -7.1040 C   0  0  0  0  0  1  0  0  0  0  0  0
    6.2070    7.3550   -7.2420 O   0  0  0  0  0  0  0  0  0  0  0  0
    2.5640    3.0670   -7.2950 C   0  0  0  0  0  0  0  0  0  0  0  0
    1.3570    3.3330   -6.9770 O   0  0  0  0  0  0  0  0  0  0  0  0
    2.8440    1.7680   -7.9100 C   0  0  0  0  0  0  0  0  0  0  0  0
    2.4290    1.5930   -9.2370 C   0  0  0  0  0  3  0  0  0  0  0  0
    2.5950    0.3300   -9.8450 C   0  0  0  0  0  3  0  0  0  0  0  0
    3.0590   -0.7150   -9.1110 C   0  0  0  0  0  3  0  0  0  0  0  0
    3.4160   -0.5830   -7.7790 C   0  0  0  0  0  3  0  0  0  0  0  0
    3.2850    0.6690   -7.1450 C   0  0  0  0  0  3  0  0  0  0  0  0
    3.7420    3.9520   -4.8640 O   0  0  0  0  0  0  0  0  0  0  0  0
    4.4240    3.8090   -4.1600 H   0  0  0  0  0  0  0  0  0  0  0  0
  1  6  1  0  0  0  0
  2  1  2  0  0  0  0
  3  2  1  0  0  0  0
  3  4  2  0  0  0  0
  4  5  1  0  0  0  0
  5  6  2  0  0  0  0
  5 17  1  0  0  0  0
  8  1  1  0  0  0  0
  8  7  1  0  0  0  0
  9  4  1  0  0  0  0
  9 10  2  0  0  0  0
 11  9  1  0  0  0  0
 11 16  1  0  0  0  0
 12 11  2  0  0  0  0
 13 12  1  0  0  0  0
 13 14  2  0  0  0  0
 14 15  1  0  0  0  0
 15 16  2  0  0  0  0
 17 18  1  0  0  0  0
M  END
>  <MODEL>
9

>  <REMARK>
 VINA RESULT:      -4.0      2.677      4.594
  Name = bgox31_4_ligand
  5 active torsions:
  status: ('A' for Active; 'I' for Inactive)
    1  A    between atoms: C_1  and  O_2
    2  A    between atoms: O_2  and  C_3
    3  A    between atoms: C_6  and  C_7
    4  A    between atoms: C_7  and  C_9
    5  A    between atoms: C_15  and  O_16
                            x       y       z     vdW  Elec       q    Type
                         _______ _______ _______ _____ _____    ______ ____

>  <TORSDO>
F 4

$$$$
