bgox31_3_ligand
 OpenBabel10092621243D

 18 19  0  0  0  0  0  0  0  0999 V2000
    5.3750   -0.2470    6.0500 C   0  0  0  0  0  0  0  0  0  0  0  0
    4.8040    0.8990    5.5640 C   0  0  0  0  0  3  0  0  0  0  0  0
    4.2350    0.9150    4.2950 C   0  0  0  0  0  3  0  0  0  0  0  0
    4.1820   -0.2080    3.5160 C   0  0  0  0  0  0  0  0  0  0  0  0
    4.7540   -1.3840    4.0350 C   0  0  0  0  0  0  0  0  0  0  0  0
    5.3450   -1.4130    5.2490 C   0  0  0  0  0  3  0  0  0  0  0  0
    5.2470    0.3520    8.3980 C   0  0  0  0  0  1  0  0  0  0  0  0
    5.9420   -0.2420    7.3370 O   0  0  0  0  0  0  0  0  0  0  0  0
    3.5950   -0.1940    2.1350 C   0  0  0  0  0  0  0  0  0  0  0  0
    4.3390   -0.1480    1.1660 O   0  0  0  0  0  0  0  0  0  0  0  0
    2.1100   -0.2180    1.8870 C   0  0  0  0  0  0  0  0  0  0  0  0
    1.6420   -0.1690    0.6010 C   0  0  0  0  0  3  0  0  0  0  0  0
    0.2850   -0.1630    0.3990 C   0  0  0  0  0  3  0  0  0  0  0  0
   -0.5550   -0.3340    1.4520 C   0  0  0  0  0  3  0  0  0  0  0  0
   -0.0900   -0.4670    2.7800 C   0  0  0  0  0  3  0  0  0  0  0  0
    1.2780   -0.3690    2.9610 C   0  0  0  0  0  3  0  0  0  0  0  0
    4.7460   -2.4810    3.1780 O   0  0  0  0  0  0  0  0  0  0  0  0
    4.0890   -3.2100    3.3130 H   0  0  0  0  0  0  0  0  0  0  0  0
  1  8  1  0  0  0  0
  2  1  1  0  0  0  0
  3  2  2  0  0  0  0
  4  5  2  0  0  0  0
  4  3  1  0  0  0  0
  5  6  1  0  0  0  0
  6  1  2  0  0  0  0
  8  7  1  0  0  0  0
  9  4  1  0  0  0  0
 10  9  2  0  0  0  0
 11  9  1  0  0  0  0
 11 16  1  0  0  0  0
 12 11  2  0  0  0  0
 13 12  1  0  0  0  0
 13 14  2  0  0  0  0
 14 15  1  0  0  0  0
 15 16  2  0  0  0  0
 17 18  1  0  0  0  0
 17  5  1  0  0  0  0
M  END
>  <MODEL>
1

>  <REMARK>
 VINA RESULT:      -5.1      0.000      0.000
  Name = bgox31_3_ligand
  5 active torsions:
  status: ('A' for Active; 'I' for Inactive)
    1  A    between atoms: C_1  and  O_2
    2  A    between atoms: O_2  and  C_3
    3  A    between atoms: C_6  and  C_7
    4  A    between atoms: C_7  and  C_9
    5  A    between atoms: C_15  and  O_16
                            x       y       z     vdW  Elec       q    Type
                         _______ _______ _______ _____ _____    ______ ____

>  <TORSDO>
F 4

$$$$
bgox31_3_ligand
 OpenBabel10092621243D

 18 19  0  0  0  0  0  0  0  0999 V2000
    7.1140   -2.6500    2.9830 C   0  0  0  0  0  0  0  0  0  0  0  0
    6.0560   -2.9560    3.7960 C   0  0  0  0  0  3  0  0  0  0  0  0
    4.9810   -2.0810    3.9070 C   0  0  0  0  0  3  0  0  0  0  0  0
    4.9170   -0.9230    3.1840 C   0  0  0  0  0  0  0  0  0  0  0  0
    6.0010   -0.6290    2.3360 C   0  0  0  0  0  0  0  0  0  0  0  0
    7.0730   -1.4460    2.2410 C   0  0  0  0  0  3  0  0  0  0  0  0
    8.4920   -4.3920    3.9590 C   0  0  0  0  0  1  0  0  0  0  0  0
    8.1900   -3.5500    2.8820 O   0  0  0  0  0  0  0  0  0  0  0  0
    3.7740    0.0410    3.3170 C   0  0  0  0  0  0  0  0  0  0  0  0
    3.9290    1.0710    3.9580 O   0  0  0  0  0  0  0  0  0  0  0  0
    2.4240   -0.2170    2.7040 C   0  0  0  0  0  0  0  0  0  0  0  0
    1.3240   -0.3130    3.5150 C   0  0  0  0  0  3  0  0  0  0  0  0
    0.1070   -0.5760    2.9390 C   0  0  0  0  0  3  0  0  0  0  0  0
   -0.0060   -0.6080    1.5870 C   0  0  0  0  0  3  0  0  0  0  0  0
    1.1020   -0.4320    0.7270 C   0  0  0  0  0  3  0  0  0  0  0  0
    2.3320   -0.2680    1.3420 C   0  0  0  0  0  3  0  0  0  0  0  0
    5.9300    0.5960    1.6790 O   0  0  0  0  0  0  0  0  0  0  0  0
    5.3300    1.3060    2.0180 H   0  0  0  0  0  0  0  0  0  0  0  0
  1  2  1  0  0  0  0
  2  3  2  0  0  0  0
  4  9  1  0  0  0  0
  4  3  1  0  0  0  0
  5  4  2  0  0  0  0
  6  5  1  0  0  0  0
  6  1  2  0  0  0  0
  8  1  1  0  0  0  0
  8  7  1  0  0  0  0
  9 10  2  0  0  0  0
 11  9  1  0  0  0  0
 11 12  1  0  0  0  0
 13 12  2  0  0  0  0
 14 13  1  0  0  0  0
 15 16  1  0  0  0  0
 15 14  2  0  0  0  0
 16 11  2  0  0  0  0
 17 18  1  0  0  0  0
 17  5  1  0  0  0  0
M  END
>  <MODEL>
2

>  <REMARK>
 VINA RESULT:      -5.0      2.219      3.465
  Name = bgox31_3_ligand
  5 active torsions:
  status: ('A' for Active; 'I' for Inactive)
    1  A    between atoms: C_1  and  O_2
    2  A    between atoms: O_2  and  C_3
    3  A    between atoms: C_6  and  C_7
    4  A    between atoms: C_7  and  C_9
    5  A    between atoms: C_15  and  O_16
                            x       y       z     vdW  Elec       q    Type
                         _______ _______ _______ _____ _____    ______ ____

>  <TORSDO>
F 4

$$$$
bgox31_3_ligand
 OpenBabel10092621243D

 18 19  0  0  0  0  0  0  0  0999 V2000
    5.0830    2.1320    6.0550 C   0  0  0  0  0  0  0  0  0  0  0  0
    4.6470    2.6980    4.8870 C   0  0  0  0  0  3  0  0  0  0  0  0
    4.2140    1.8960    3.8370 C   0  0  0  0  0  3  0  0  0  0  0  0
    4.1610    0.5330    3.9470 C   0  0  0  0  0  0  0  0  0  0  0  0
    4.5920   -0.0350    5.1590 C   0  0  0  0  0  0  0  0  0  0  0  0
    5.0520    0.7230    6.1780 C   0  0  0  0  0  3  0  0  0  0  0  0
    5.7830    2.4080    8.3620 C   0  0  0  0  0  1  0  0  0  0  0  0
    5.5140    2.9630    7.1050 O   0  0  0  0  0  0  0  0  0  0  0  0
    3.7200   -0.3430    2.8110 C   0  0  0  0  0  0  0  0  0  0  0  0
    4.5400   -1.0550    2.2490 O   0  0  0  0  0  0  0  0  0  0  0  0
    2.2990   -0.3700    2.3150 C   0  0  0  0  0  0  0  0  0  0  0  0
    1.2720   -0.3930    3.2200 C   0  0  0  0  0  3  0  0  0  0  0  0
   -0.0150   -0.4460    2.7470 C   0  0  0  0  0  3  0  0  0  0  0  0
   -0.2480   -0.3450    1.4140 C   0  0  0  0  0  3  0  0  0  0  0  0
    0.7940   -0.2390    0.4660 C   0  0  0  0  0  3  0  0  0  0  0  0
    2.0830   -0.2890    0.9680 C   0  0  0  0  0  3  0  0  0  0  0  0
    4.5930   -1.4270    5.1990 O   0  0  0  0  0  0  0  0  0  0  0  0
    4.3910   -1.8980    6.0460 H   0  0  0  0  0  0  0  0  0  0  0  0
  1  6  1  0  0  0  0
  1  8  1  0  0  0  0
  2  1  2  0  0  0  0
  3  4  2  0  0  0  0
  3  2  1  0  0  0  0
  4  5  1  0  0  0  0
  5 17  1  0  0  0  0
  5  6  2  0  0  0  0
  8  7  1  0  0  0  0
  9  4  1  0  0  0  0
 10  9  2  0  0  0  0
 11  9  1  0  0  0  0
 11 12  1  0  0  0  0
 13 12  2  0  0  0  0
 14 13  1  0  0  0  0
 15 16  1  0  0  0  0
 15 14  2  0  0  0  0
 16 11  2  0  0  0  0
 17 18  1  0  0  0  0
M  END
>  <MODEL>
3

>  <REMARK>
 VINA RESULT:      -4.9      1.379      1.980
  Name = bgox31_3_ligand
  5 active torsions:
  status: ('A' for Active; 'I' for Inactive)
    1  A    between atoms: C_1  and  O_2
    2  A    between atoms: O_2  and  C_3
    3  A    between atoms: C_6  and  C_7
    4  A    between atoms: C_7  and  C_9
    5  A    between atoms: C_15  and  O_16
                            x       y       z     vdW  Elec       q    Type
                         _______ _______ _______ _____ _____    ______ ____

>  <TORSDO>
F 4

$$$$
bgox31_3_ligand
 OpenBabel10092621243D

 18 19  0  0  0  0  0  0  0  0999 V2000
    7.3910   -0.4080    1.7270 C   0  0  0  0  0  0  0  0  0  0  0  0
    6.7650    0.7820    1.9860 C   0  0  0  0  0  3  0  0  0  0  0  0
    5.5100    0.7990    2.5850 C   0  0  0  0  0  3  0  0  0  0  0  0
    4.8840   -0.3530    2.9770 C   0  0  0  0  0  0  0  0  0  0  0  0
    5.5470   -1.5680    2.7250 C   0  0  0  0  0  0  0  0  0  0  0  0
    6.7500   -1.6090    2.1100 C   0  0  0  0  0  3  0  0  0  0  0  0
    9.6130   -1.3560    1.5000 C   0  0  0  0  0  1  0  0  0  0  0  0
    8.6620   -0.4000    1.1240 O   0  0  0  0  0  0  0  0  0  0  0  0
    3.5190   -0.3480    3.5990 C   0  0  0  0  0  0  0  0  0  0  0  0
    3.4130   -0.3740    4.8170 O   0  0  0  0  0  0  0  0  0  0  0  0
    2.2570   -0.3290    2.7790 C   0  0  0  0  0  0  0  0  0  0  0  0
    2.3420   -0.3790    1.4120 C   0  0  0  0  0  3  0  0  0  0  0  0
    1.1820   -0.3320    0.6820 C   0  0  0  0  0  3  0  0  0  0  0  0
   -0.0170   -0.3690    1.3190 C   0  0  0  0  0  3  0  0  0  0  0  0
   -0.1290   -0.3990    2.7270 C   0  0  0  0  0  3  0  0  0  0  0  0
    1.0590   -0.3440    3.4350 C   0  0  0  0  0  3  0  0  0  0  0  0
    4.8410   -2.7160    3.0700 O   0  0  0  0  0  0  0  0  0  0  0  0
    4.1940   -2.6930    3.8180 H   0  0  0  0  0  0  0  0  0  0  0  0
  1  2  2  0  0  0  0
  1  6  1  0  0  0  0
  2  3  1  0  0  0  0
  3  4  2  0  0  0  0
  4  9  1  0  0  0  0
  5  4  1  0  0  0  0
  5 17  1  0  0  0  0
  6  5  2  0  0  0  0
  8  7  1  0  0  0  0
  8  1  1  0  0  0  0
  9 10  2  0  0  0  0
 11 16  1  0  0  0  0
 11  9  1  0  0  0  0
 12 11  2  0  0  0  0
 13 14  2  0  0  0  0
 13 12  1  0  0  0  0
 14 15  1  0  0  0  0
 15 16  2  0  0  0  0
 17 18  1  0  0  0  0
M  END
>  <MODEL>
4

>  <REMARK>
 VINA RESULT:      -4.8      2.401      3.384
  Name = bgox31_3_ligand
  5 active torsions:
  status: ('A' for Active; 'I' for Inactive)
    1  A    between atoms: C_1  and  O_2
    2  A    between atoms: O_2  and  C_3
    3  A    between atoms: C_6  and  C_7
    4  A    between atoms: C_7  and  C_9
    5  A    between atoms: C_15  and  O_16
                            x       y       z     vdW  Elec       q    Type
                         _______ _______ _______ _____ _____    ______ ____

>  <TORSDO>
F 4

$$$$
bgox31_3_ligand
 OpenBabel10092621243D

 18 19  0  0  0  0  0  0  0  0999 V2000
    5.8050   -0.0400    7.5950 C   0  0  0  0  0  0  0  0  0  0  0  0
    4.5400   -0.4800    7.3080 C   0  0  0  0  0  3  0  0  0  0  0  0
    4.2380   -0.9680    6.0410 C   0  0  0  0  0  3  0  0  0  0  0  0
    5.1880   -1.0700    5.0630 C   0  0  0  0  0  0  0  0  0  0  0  0
    6.4880   -0.6340    5.3760 C   0  0  0  0  0  0  0  0  0  0  0  0
    6.7960   -0.1210    6.5890 C   0  0  0  0  0  3  0  0  0  0  0  0
    5.3920    1.5550    9.3760 C   0  0  0  0  0  1  0  0  0  0  0  0
    6.0900    0.4460    8.8830 O   0  0  0  0  0  0  0  0  0  0  0  0
    4.8660   -1.5690    3.6850 C   0  0  0  0  0  0  0  0  0  0  0  0
    5.1190   -2.7290    3.3920 O   0  0  0  0  0  0  0  0  0  0  0  0
    4.2530   -0.6880    2.6300 C   0  0  0  0  0  0  0  0  0  0  0  0
    5.0590    0.1340    1.8890 C   0  0  0  0  0  3  0  0  0  0  0  0
    4.4770    0.9500    0.9520 C   0  0  0  0  0  3  0  0  0  0  0  0
    3.1510    0.8350    0.6880 C   0  0  0  0  0  3  0  0  0  0  0  0
    2.3130   -0.0650    1.3850 C   0  0  0  0  0  3  0  0  0  0  0  0
    2.9120   -0.8010    2.3930 C   0  0  0  0  0  3  0  0  0  0  0  0
    7.4040   -0.6840    4.3290 O   0  0  0  0  0  0  0  0  0  0  0  0
    8.3510   -0.9080    4.5100 H   0  0  0  0  0  0  0  0  0  0  0  0
  1  8  1  0  0  0  0
  2  1  1  0  0  0  0
  3  2  2  0  0  0  0
  4  5  2  0  0  0  0
  4  3  1  0  0  0  0
  5  6  1  0  0  0  0
  6  1  2  0  0  0  0
  8  7  1  0  0  0  0
  9  4  1  0  0  0  0
 10  9  2  0  0  0  0
 11  9  1  0  0  0  0
 12 11  2  0  0  0  0
 13 12  1  0  0  0  0
 14 13  2  0  0  0  0
 14 15  1  0  0  0  0
 15 16  2  0  0  0  0
 16 11  1  0  0  0  0
 17 18  1  0  0  0  0
 17  5  1  0  0  0  0
M  END
>  <MODEL>
5

>  <REMARK>
 VINA RESULT:      -4.6      1.809      2.755
  Name = bgox31_3_ligand
  5 active torsions:
  status: ('A' for Active; 'I' for Inactive)
    1  A    between atoms: C_1  and  O_2
    2  A    between atoms: O_2  and  C_3
    3  A    between atoms: C_6  and  C_7
    4  A    between atoms: C_7  and  C_9
    5  A    between atoms: C_15  and  O_16
                            x       y       z     vdW  Elec       q    Type
                         _______ _______ _______ _____ _____    ______ ____

>  <TORSDO>
F 4

$$$$
bgox31_3_ligand
 OpenBabel10092621243D

 18 19  0  0  0  0  0  0  0  0999 V2000
    5.1110    1.8000    6.2500 C   0  0  0  0  0  0  0  0  0  0  0  0
    5.0290    0.4330    6.2410 C   0  0  0  0  0  3  0  0  0  0  0  0
    4.6050   -0.2370    5.0980 C   0  0  0  0  0  3  0  0  0  0  0  0
    4.3070    0.4300    3.9420 C   0  0  0  0  0  0  0  0  0  0  0  0
    4.4150    1.8330    3.9580 C   0  0  0  0  0  0  0  0  0  0  0  0
    4.7880    2.5060    5.0680 C   0  0  0  0  0  3  0  0  0  0  0  0
    6.3450    3.6000    7.3110 C   0  0  0  0  0  1  0  0  0  0  0  0
    5.5450    2.4560    7.4160 O   0  0  0  0  0  0  0  0  0  0  0  0
    3.8230   -0.2800    2.7120 C   0  0  0  0  0  0  0  0  0  0  0  0
    4.6290   -0.8590    1.9960 O   0  0  0  0  0  0  0  0  0  0  0  0
    2.3740   -0.2980    2.3060 C   0  0  0  0  0  0  0  0  0  0  0  0
    2.0490   -0.3190    0.9750 C   0  0  0  0  0  3  0  0  0  0  0  0
    0.7220   -0.3060    0.6260 C   0  0  0  0  0  3  0  0  0  0  0  0
   -0.2300   -0.4020    1.5890 C   0  0  0  0  0  3  0  0  0  0  0  0
    0.0850   -0.4610    2.9660 C   0  0  0  0  0  3  0  0  0  0  0  0
    1.4280   -0.3710    3.2890 C   0  0  0  0  0  3  0  0  0  0  0  0
    4.0280    2.4750    2.7850 O   0  0  0  0  0  0  0  0  0  0  0  0
    3.7370    3.4210    2.8120 H   0  0  0  0  0  0  0  0  0  0  0  0
  1  8  1  0  0  0  0
  2  1  1  0  0  0  0
  3  2  2  0  0  0  0
  4  5  2  0  0  0  0
  4  3  1  0  0  0  0
  5  6  1  0  0  0  0
  6  1  2  0  0  0  0
  7  8  1  0  0  0  0
  9  4  1  0  0  0  0
 10  9  2  0  0  0  0
 11  9  1  0  0  0  0
 11 16  1  0  0  0  0
 12 11  2  0  0  0  0
 13 12  1  0  0  0  0
 13 14  2  0  0  0  0
 14 15  1  0  0  0  0
 15 16  2  0  0  0  0
 17 18  1  0  0  0  0
 17  5  1  0  0  0  0
M  END
>  <MODEL>
6

>  <REMARK>
 VINA RESULT:      -4.4      1.539      2.201
  Name = bgox31_3_ligand
  5 active torsions:
  status: ('A' for Active; 'I' for Inactive)
    1  A    between atoms: C_1  and  O_2
    2  A    between atoms: O_2  and  C_3
    3  A    between atoms: C_6  and  C_7
    4  A    between atoms: C_7  and  C_9
    5  A    between atoms: C_15  and  O_16
                            x       y       z     vdW  Elec       q    Type
                         _______ _______ _______ _____ _____    ______ ____

>  <TORSDO>
F 4

$$$$
bgox31_3_ligand
 OpenBabel10092621243D

 18 19  0  0  0  0  0  0  0  0999 V2000
    1.2970   -0.1730    0.6640 C   0  0  0  0  0  0  0  0  0  0  0  0
    0.9040   -0.6600    1.8820 C   0  0  0  0  0  3  0  0  0  0  0  0
    1.7780   -0.6340    2.9630 C   0  0  0  0  0  3  0  0  0  0  0  0
    3.0270   -0.0850    2.8660 C   0  0  0  0  0  0  0  0  0  0  0  0
    3.4120    0.4300    1.6140 C   0  0  0  0  0  0  0  0  0  0  0  0
    2.5920    0.3810    0.5410 C   0  0  0  0  0  3  0  0  0  0  0  0
    0.7110    0.4620   -1.6040 C   0  0  0  0  0  1  0  0  0  0  0  0
    0.3950   -0.2070   -0.4150 O   0  0  0  0  0  0  0  0  0  0  0  0
    3.9880   -0.0760    4.0180 C   0  0  0  0  0  0  0  0  0  0  0  0
    3.7990    0.6900    4.9520 O   0  0  0  0  0  0  0  0  0  0  0  0
    5.1990   -0.9690    4.0670 C   0  0  0  0  0  0  0  0  0  0  0  0
    5.1100   -2.2500    3.5920 C   0  0  0  0  0  3  0  0  0  0  0  0
    6.2170   -3.0560    3.6720 C   0  0  0  0  0  3  0  0  0  0  0  0
    7.3990   -2.5390    4.0940 C   0  0  0  0  0  3  0  0  0  0  0  0
    7.5330   -1.1960    4.5140 C   0  0  0  0  0  3  0  0  0  0  0  0
    6.3750   -0.4380    4.5160 C   0  0  0  0  0  3  0  0  0  0  0  0
    4.7170    0.9080    1.5400 O   0  0  0  0  0  0  0  0  0  0  0  0
    5.2050    1.1440    2.3680 H   0  0  0  0  0  0  0  0  0  0  0  0
  1  2  1  0  0  0  0
  2  3  2  0  0  0  0
  4  3  1  0  0  0  0
  4  9  1  0  0  0  0
  5  4  2  0  0  0  0
  6  1  2  0  0  0  0
  6  5  1  0  0  0  0
  7  8  1  0  0  0  0
  8  1  1  0  0  0  0
  9 11  1  0  0  0  0
  9 10  2  0  0  0  0
 11 16  1  0  0  0  0
 12 13  1  0  0  0  0
 12 11  2  0  0  0  0
 13 14  2  0  0  0  0
 14 15  1  0  0  0  0
 15 16  2  0  0  0  0
 17  5  1  0  0  0  0
 17 18  1  0  0  0  0
M  END
>  <MODEL>
7

>  <REMARK>
 VINA RESULT:      -4.4      1.915      6.122
  Name = bgox31_3_ligand
  5 active torsions:
  status: ('A' for Active; 'I' for Inactive)
    1  A    between atoms: C_1  and  O_2
    2  A    between atoms: O_2  and  C_3
    3  A    between atoms: C_6  and  C_7
    4  A    between atoms: C_7  and  C_9
    5  A    between atoms: C_15  and  O_16
                            x       y       z     vdW  Elec       q    Type
                         _______ _______ _______ _____ _____    ______ ____

>  <TORSDO>
F 4

$$$$
bgox31_3_ligand
 OpenBabel10092621243D

 18 19  0  0  0  0  0  0  0  0999 V2000
    0.8940   -0.1410    0.8880 C   0  0  0  0  0  0  0  0  0  0  0  0
    0.6330   -0.5850    2.1570 C   0  0  0  0  0  3  0  0  0  0  0  0
    1.6730   -0.7740    3.0610 C   0  0  0  0  0  3  0  0  0  0  0  0
    2.9690   -0.4800    2.7390 C   0  0  0  0  0  0  0  0  0  0  0  0
    3.2210   -0.0050    1.4390 C   0  0  0  0  0  0  0  0  0  0  0  0
    2.2320    0.1490    0.5320 C   0  0  0  0  0  3  0  0  0  0  0  0
    0.0930    0.3650   -1.3460 C   0  0  0  0  0  1  0  0  0  0  0  0
   -0.1730    0.0450   -0.0090 O   0  0  0  0  0  0  0  0  0  0  0  0
    4.1010   -0.7050    3.6980 C   0  0  0  0  0  0  0  0  0  0  0  0
    4.7290   -1.7530    3.6520 O   0  0  0  0  0  0  0  0  0  0  0  0
    4.4900    0.3080    4.7410 C   0  0  0  0  0  0  0  0  0  0  0  0
    4.3440    1.6430    4.4690 C   0  0  0  0  0  3  0  0  0  0  0  0
    4.7320    2.5510    5.4220 C   0  0  0  0  0  3  0  0  0  0  0  0
    5.1240    2.1170    6.6460 C   0  0  0  0  0  3  0  0  0  0  0  0
    5.2070    0.7450    6.9760 C   0  0  0  0  0  3  0  0  0  0  0  0
    4.9050   -0.1460    5.9610 C   0  0  0  0  0  3  0  0  0  0  0  0
    4.5620    0.2060    1.1300 O   0  0  0  0  0  0  0  0  0  0  0  0
    5.2590   -0.3740    1.5270 H   0  0  0  0  0  0  0  0  0  0  0  0
  1  2  1  0  0  0  0
  2  3  2  0  0  0  0
  4  3  1  0  0  0  0
  4  9  1  0  0  0  0
  5  4  2  0  0  0  0
  6  1  2  0  0  0  0
  6  5  1  0  0  0  0
  7  8  1  0  0  0  0
  8  1  1  0  0  0  0
  9 11  1  0  0  0  0
 10  9  2  0  0  0  0
 11 16  1  0  0  0  0
 12 11  2  0  0  0  0
 12 13  1  0  0  0  0
 13 14  2  0  0  0  0
 14 15  1  0  0  0  0
 16 15  2  0  0  0  0
 17  5  1  0  0  0  0
 17 18  1  0  0  0  0
M  END
>  <MODEL>
8

>  <REMARK>
 VINA RESULT:      -4.4      1.515      5.937
  Name = bgox31_3_ligand
  5 active torsions:
  status: ('A' for Active; 'I' for Inactive)
    1  A    between atoms: C_1  and  O_2
    2  A    between atoms: O_2  and  C_3
    3  A    between atoms: C_6  and  C_7
    4  A    between atoms: C_7  and  C_9
    5  A    between atoms: C_15  and  O_16
                            x       y       z     vdW  Elec       q    Type
                         _______ _______ _______ _____ _____    ______ ____

>  <TORSDO>
F 4

$$$$
bgox31_3_ligand
 OpenBabel10092621243D

 18 19  0  0  0  0  0  0  0  0999 V2000
    4.0620    1.5490    0.4280 C   0  0  0  0  0  0  0  0  0  0  0  0
    5.3120    1.4950    0.9850 C   0  0  0  0  0  3  0  0  0  0  0  0
    5.5940    0.5710    1.9860 C   0  0  0  0  0  3  0  0  0  0  0  0
    4.6640   -0.3370    2.4100 C   0  0  0  0  0  0  0  0  0  0  0  0
    3.3900   -0.2850    1.8150 C   0  0  0  0  0  0  0  0  0  0  0  0
    3.0830    0.6290    0.8680 C   0  0  0  0  0  3  0  0  0  0  0  0
    4.6000    3.6330   -0.6940 C   0  0  0  0  0  1  0  0  0  0  0  0
    3.8000    2.4890   -0.5850 O   0  0  0  0  0  0  0  0  0  0  0  0
    4.9500   -1.3200    3.5080 C   0  0  0  0  0  0  0  0  0  0  0  0
    4.9580   -2.5160    3.2560 O   0  0  0  0  0  0  0  0  0  0  0  0
    5.2130   -0.8920    4.9270 C   0  0  0  0  0  0  0  0  0  0  0  0
    4.2070   -0.9770    5.8520 C   0  0  0  0  0  3  0  0  0  0  0  0
    4.4590   -0.5560    7.1340 C   0  0  0  0  0  3  0  0  0  0  0  0
    5.7180   -0.1900    7.4870 C   0  0  0  0  0  3  0  0  0  0  0  0
    6.7900   -0.1710    6.5680 C   0  0  0  0  0  3  0  0  0  0  0  0
    6.4800   -0.5060    5.2610 C   0  0  0  0  0  3  0  0  0  0  0  0
    2.4530   -1.1750    2.3310 O   0  0  0  0  0  0  0  0  0  0  0  0
    1.7560   -0.8530    2.9560 H   0  0  0  0  0  0  0  0  0  0  0  0
  1  6  2  0  0  0  0
  1  2  1  0  0  0  0
  2  3  2  0  0  0  0
  3  4  1  0  0  0  0
  4  9  1  0  0  0  0
  5 17  1  0  0  0  0
  5  4  2  0  0  0  0
  6  5  1  0  0  0  0
  7  8  1  0  0  0  0
  8  1  1  0  0  0  0
  9 11  1  0  0  0  0
 10  9  2  0  0  0  0
 11 16  2  0  0  0  0
 11 12  1  0  0  0  0
 12 13  2  0  0  0  0
 13 14  1  0  0  0  0
 15 14  2  0  0  0  0
 16 15  1  0  0  0  0
 17 18  1  0  0  0  0
M  END
>  <MODEL>
9

>  <REMARK>
 VINA RESULT:      -4.4      2.289      5.852
  Name = bgox31_3_ligand
  5 active torsions:
  status: ('A' for Active; 'I' for Inactive)
    1  A    between atoms: C_1  and  O_2
    2  A    between atoms: O_2  and  C_3
    3  A    between atoms: C_6  and  C_7
    4  A    between atoms: C_7  and  C_9
    5  A    between atoms: C_15  and  O_16
                            x       y       z     vdW  Elec       q    Type
                         _______ _______ _______ _____ _____    ______ ____

>  <TORSDO>
F 4

$$$$
