s3_esm2_f4_ligand
     RDKit          3D

 44 44  0  0  0  0  0  0  0  0999 V2000
    8.9092   -0.2463  -11.2100 C   0  0  0  0  0  0  0  0  0  0  0  0
    8.0844    0.3172  -10.0486 C   0  0  0  0  0  0  0  0  0  0  0  0
    7.2964   -0.7795   -9.3774 C   0  0  0  0  0  0  0  0  0  0  0  0
    6.4338   -0.2281   -8.2771 C   0  0  0  0  0  0  0  0  0  0  0  0
    5.4262   -1.2589   -7.7875 C   0  0  2  0  0  0  0  0  0  0  0  0
    4.0967   -0.5860   -7.5401 C   0  0  0  0  0  0  0  0  0  0  0  0
    3.3791   -1.0598   -6.3112 C   0  0  0  0  0  0  0  0  0  0  0  0
    5.9047   -1.8470   -6.5919 O   0  0  0  0  0  0  0  0  0  0  0  0
    6.3437   -3.1321   -6.6165 C   0  0  0  0  0  0  0  0  0  0  0  0
    6.5750   -3.7038   -7.6471 O   0  0  0  0  0  0  0  0  0  0  0  0
    6.4818   -3.7624   -5.3069 C   0  0  0  0  0  0  0  0  0  0  0  0
    6.4836   -3.0349   -4.1963 C   0  0  0  0  0  0  0  0  0  0  0  0
    6.4107   -3.6206   -2.8400 C   0  0  0  0  0  0  0  0  0  0  0  0
    6.0775   -4.9462   -2.6490 C   0  0  0  0  0  0  0  0  0  0  0  0
    5.9839   -5.4572   -1.3674 C   0  0  0  0  0  0  0  0  0  0  0  0
    6.2140   -4.6671   -0.2810 C   0  0  0  0  0  0  0  0  0  0  0  0
    6.1024   -5.2001    0.9552 O   0  0  0  0  0  0  0  0  0  0  0  0
    5.9985   -4.3486    2.0845 C   0  0  0  0  0  0  0  0  0  0  0  0
    6.5545   -3.3436   -0.4702 C   0  0  0  0  0  0  0  0  0  0  0  0
    6.6509   -2.8309   -1.7474 C   0  0  0  0  0  0  0  0  0  0  0  0
    9.9580    0.0669  -11.1007 H   0  0  0  0  0  0  0  0  0  0  0  0
    8.8518   -1.3448  -11.2014 H   0  0  0  0  0  0  0  0  0  0  0  0
    8.5101    0.1343  -12.1618 H   0  0  0  0  0  0  0  0  0  0  0  0
    8.7614    0.7777   -9.3141 H   0  0  0  0  0  0  0  0  0  0  0  0
    7.3836    1.0681  -10.4423 H   0  0  0  0  0  0  0  0  0  0  0  0
    6.6557   -1.2709  -10.1246 H   0  0  0  0  0  0  0  0  0  0  0  0
    8.0026   -1.5009   -8.9406 H   0  0  0  0  0  0  0  0  0  0  0  0
    7.0760    0.0714   -7.4358 H   0  0  0  0  0  0  0  0  0  0  0  0
    5.8791    0.6351   -8.6736 H   0  0  0  0  0  0  0  0  0  0  0  0
    5.2935   -2.0423   -8.5482 H   0  0  0  0  0  0  0  0  0  0  0  0
    4.2722    0.4953   -7.4400 H   0  0  0  0  0  0  0  0  0  0  0  0
    3.4534   -0.8399   -8.3955 H   0  0  0  0  0  0  0  0  0  0  0  0
    3.8934   -0.6790   -5.4165 H   0  0  0  0  0  0  0  0  0  0  0  0
    2.3438   -0.6883   -6.3249 H   0  0  0  0  0  0  0  0  0  0  0  0
    3.3737   -2.1596   -6.2908 H   0  0  0  0  0  0  0  0  0  0  0  0
    6.5859   -4.8554   -5.2394 H   0  0  0  0  0  0  0  0  0  0  0  0
    6.5424   -1.9404   -4.2895 H   0  0  0  0  0  0  0  0  0  0  0  0
    5.8864   -5.5959   -3.5157 H   0  0  0  0  0  0  0  0  0  0  0  0
    5.7203   -6.5153   -1.2230 H   0  0  0  0  0  0  0  0  0  0  0  0
    6.9993   -3.9896    2.3664 H   0  0  0  0  0  0  0  0  0  0  0  0
    5.3567   -3.4899    1.8384 H   0  0  0  0  0  0  0  0  0  0  0  0
    5.5588   -4.9061    2.9248 H   0  0  0  0  0  0  0  0  0  0  0  0
    6.7493   -2.6966    0.3979 H   0  0  0  0  0  0  0  0  0  0  0  0
    6.9241   -1.7750   -1.8899 H   0  0  0  0  0  0  0  0  0  0  0  0
  2  1  1  0
  3  2  1  0
  4  3  1  0
  5  4  1  0
  6  5  1  0
  7  6  1  0
  8  5  1  0
  9  8  1  0
 10  9  2  0
 11  9  1  0
 12 11  2  3
 13 12  1  0
 14 13  1  0
 15 14  2  0
 16 15  1  0
 17 16  1  0
 18 17  1  0
 19 16  2  0
 20 19  1  0
 20 13  2  0
  1 21  1  0
  1 22  1  0
  1 23  1  0
  2 24  1  0
  2 25  1  0
  3 26  1  0
  3 27  1  0
  4 28  1  0
  4 29  1  0
  5 30  1  6
  6 31  1  0
  6 32  1  0
  7 33  1  0
  7 34  1  0
  7 35  1  0
 11 36  1  0
 12 37  1  0
 14 38  1  0
 15 39  1  0
 18 40  1  0
 18 41  1  0
 18 42  1  0
 19 43  1  0
 20 44  1  0
M  END
$$$$
