s3_esm2_f4_ligand
 OpenBabel10092621063D

 20 20  0  0  1  0  0  0  0  0999 V2000
    1.0600    5.4520   -6.8510 C   0  0  0  0  0  0  0  0  0  0  0  0
    1.1300    6.4710   -7.4830 O   0  0  0  0  0  0  0  0  0  0  0  0
    1.6780    4.2020   -7.2830 C   0  0  0  0  0  3  0  0  0  0  0  0
    2.9910    4.0240   -7.2000 C   0  0  0  0  0  3  0  0  0  0  0  0
    3.6510    2.7200   -7.4220 C   0  0  0  0  0  0  0  0  0  0  0  0
    3.4980    2.0320   -8.6090 C   0  0  0  0  0  3  0  0  0  0  0  0
    4.1010    0.7980   -8.7750 C   0  0  0  0  0  3  0  0  0  0  0  0
    4.8450    0.2440   -7.7770 C   0  0  0  0  0  0  0  0  0  0  0  0
    5.0040    0.9320   -6.5930 C   0  0  0  0  0  3  0  0  0  0  0  0
    4.4070    2.1640   -6.4240 C   0  0  0  0  0  3  0  0  0  0  0  0
    5.4080   -0.9680   -7.9740 O   0  0  0  0  0  0  0  0  0  0  0  0
    4.5850   -2.1040   -8.1820 C   0  0  0  0  0  1  0  0  0  0  0  0
    0.3690    5.3780   -5.6840 O   0  0  0  0  0  0  0  0  0  0  0  0
    0.6410    6.3170   -4.6610 C   0  0  1  0  0  3  0  0  0  0  0  0
   -0.2510    6.0620   -3.4690 C   0  0  0  0  0  2  0  0  0  0  0  0
   -1.3240    5.0390   -3.7030 C   0  0  0  0  0  1  0  0  0  0  0  0
    2.0990    6.1910   -4.2390 C   0  0  0  0  0  2  0  0  0  0  0  0
    2.2770    5.1450   -3.1760 C   0  0  0  0  0  2  0  0  0  0  0  0
    3.5860    3.1530   -2.4250 C   0  0  0  0  0  1  0  0  0  0  0  0
    3.4340    4.2340   -3.4990 C   0  0  0  0  0  2  0  0  0  0  0  0
  1 13  1  0  0  0  0
  2  1  2  0  0  0  0
  3  4  2  0  0  0  0
  3  1  1  0  0  0  0
  5  4  1  0  0  0  0
  5 10  1  0  0  0  0
  6  5  2  0  0  0  0
  7  6  1  0  0  0  0
  7  8  2  0  0  0  0
  8  9  1  0  0  0  0
  9 10  2  0  0  0  0
 11  8  1  0  0  0  0
 12 11  1  0  0  0  0
 13 14  1  0  0  0  0
 14 17  1  1  0  0  0
 14 15  1  0  0  0  0
 16 15  1  0  0  0  0
 17 18  1  0  0  0  0
 20 18  1  0  0  0  0
 20 19  1  0  0  0  0
M  END
>  <MODEL>
1

>  <REMARK>
 VINA RESULT:      -4.5      0.000      0.000
  Name = s3_esm2_f4_ligand
  12 active torsions:
  status: ('A' for Active; 'I' for Inactive)
    1  A    between atoms: C_1  and  C_2
    2  A    between atoms: C_2  and  C_3
    3  A    between atoms: C_3  and  C_4
    4  A    between atoms: C_4  and  C_5
    5  A    between atoms: C_5  and  C_6
    6  A    between atoms: C_5  and  O_8
    7  A    between atoms: C_6  and  C_7
    8  A    between atoms: O_8  and  C_9
    9  A    between atoms: C_9  and  C_11
   10  A    between atoms: C_12  and  C_13
   11  A    between atoms: C_16  and  O_17
   12  A    between atoms: O_17  and  C_18
                            x       y       z     vdW  Elec       q    Type
                         _______ _______ _______ _____ _____    ______ ____

>  <TORSDO>
F 9

$$$$
s3_esm2_f4_ligand
 OpenBabel10092621063D

 20 20  0  0  1  0  0  0  0  0999 V2000
   -0.7120    6.1970   -3.9040 C   0  0  0  0  0  0  0  0  0  0  0  0
   -1.8500    5.8370   -4.0360 O   0  0  0  0  0  0  0  0  0  0  0  0
    0.1200    6.6350   -5.0220 C   0  0  0  0  0  3  0  0  0  0  0  0
    0.6220    5.7590   -5.8840 C   0  0  0  0  0  3  0  0  0  0  0  0
    1.2930    6.1500   -7.1430 C   0  0  0  0  0  0  0  0  0  0  0  0
    0.7550    7.1130   -7.9720 C   0  0  0  0  0  3  0  0  0  0  0  0
    1.3870    7.4340   -9.1600 C   0  0  0  0  0  3  0  0  0  0  0  0
    2.5390    6.8060   -9.5300 C   0  0  0  0  0  0  0  0  0  0  0  0
    3.0810    5.8470   -8.7000 C   0  0  0  0  0  3  0  0  0  0  0  0
    2.4550    5.5270   -7.5130 C   0  0  0  0  0  3  0  0  0  0  0  0
    3.1200    7.1390  -10.7030 O   0  0  0  0  0  0  0  0  0  0  0  0
    4.5310    7.0830  -10.8330 C   0  0  0  0  0  1  0  0  0  0  0  0
   -0.0950    6.1980   -2.6950 O   0  0  0  0  0  0  0  0  0  0  0  0
    0.8870    7.1810   -2.4230 C   0  0  1  0  0  3  0  0  0  0  0  0
    0.3470    8.1990   -1.4460 C   0  0  0  0  0  2  0  0  0  0  0  0
    0.2600    7.7150   -0.0290 C   0  0  0  0  0  1  0  0  0  0  0  0
    2.1170    6.5100   -1.8280 C   0  0  0  0  0  2  0  0  0  0  0  0
    3.0490    6.0180   -2.8990 C   0  0  0  0  0  2  0  0  0  0  0  0
    3.6470    4.0560   -4.3280 C   0  0  0  0  0  1  0  0  0  0  0  0
    2.9840    4.5170   -3.0260 C   0  0  0  0  0  2  0  0  0  0  0  0
  1 13  1  0  0  0  0
  2  1  2  0  0  0  0
  3  1  1  0  0  0  0
  4  3  2  0  0  0  0
  5  4  1  0  0  0  0
  6  5  2  0  0  0  0
  7  6  1  0  0  0  0
  8  7  2  0  0  0  0
  8  9  1  0  0  0  0
  9 10  2  0  0  0  0
 10  5  1  0  0  0  0
 11  8  1  0  0  0  0
 12 11  1  0  0  0  0
 13 14  1  0  0  0  0
 14 17  1  1  0  0  0
 14 15  1  0  0  0  0
 15 16  1  0  0  0  0
 18 17  1  0  0  0  0
 19 20  1  0  0  0  0
 20 18  1  0  0  0  0
M  END
>  <MODEL>
2

>  <REMARK>
 VINA RESULT:      -4.5      3.697      4.950
  Name = s3_esm2_f4_ligand
  12 active torsions:
  status: ('A' for Active; 'I' for Inactive)
    1  A    between atoms: C_1  and  C_2
    2  A    between atoms: C_2  and  C_3
    3  A    between atoms: C_3  and  C_4
    4  A    between atoms: C_4  and  C_5
    5  A    between atoms: C_5  and  C_6
    6  A    between atoms: C_5  and  O_8
    7  A    between atoms: C_6  and  C_7
    8  A    between atoms: O_8  and  C_9
    9  A    between atoms: C_9  and  C_11
   10  A    between atoms: C_12  and  C_13
   11  A    between atoms: C_16  and  O_17
   12  A    between atoms: O_17  and  C_18
                            x       y       z     vdW  Elec       q    Type
                         _______ _______ _______ _____ _____    ______ ____

>  <TORSDO>
F 9

$$$$
s3_esm2_f4_ligand
 OpenBabel10092621063D

 20 20  0  0  1  0  0  0  0  0999 V2000
   -0.5860    6.3450   -4.1740 C   0  0  0  0  0  0  0  0  0  0  0  0
   -1.7080    5.9310   -4.0630 O   0  0  0  0  0  0  0  0  0  0  0  0
    0.3560    6.4060   -3.0600 C   0  0  0  0  0  3  0  0  0  0  0  0
    0.1310    7.1980   -2.0180 C   0  0  0  0  0  3  0  0  0  0  0  0
    0.9300    7.1520   -0.7740 C   0  0  0  0  0  0  0  0  0  0  0  0
    0.3940    7.5400    0.4370 C   0  0  0  0  0  3  0  0  0  0  0  0
    1.1760    7.5170    1.5770 C   0  0  0  0  0  3  0  0  0  0  0  0
    2.4780    7.1200    1.5240 C   0  0  0  0  0  0  0  0  0  0  0  0
    3.0140    6.7260    0.3160 C   0  0  0  0  0  3  0  0  0  0  0  0
    2.2370    6.7440   -0.8230 C   0  0  0  0  0  3  0  0  0  0  0  0
    3.2130    7.1230    2.6580 O   0  0  0  0  0  0  0  0  0  0  0  0
    3.7070    5.9020    3.1820 C   0  0  0  0  0  1  0  0  0  0  0  0
   -0.1100    6.8200   -5.3540 O   0  0  0  0  0  0  0  0  0  0  0  0
    1.0750    6.2640   -5.8930 C   0  0  1  0  0  3  0  0  0  0  0  0
    0.7700    4.9520   -6.5760 C   0  0  0  0  0  2  0  0  0  0  0  0
    1.9800    4.1360   -6.9240 C   0  0  0  0  0  1  0  0  0  0  0  0
    1.6710    7.2360   -6.9020 C   0  0  0  0  0  2  0  0  0  0  0  0
    0.6560    7.6580   -7.9260 C   0  0  0  0  0  2  0  0  0  0  0  0
    2.6180    6.9710   -9.3130 C   0  0  0  0  0  1  0  0  0  0  0  0
    1.2540    7.6660   -9.3100 C   0  0  0  0  0  2  0  0  0  0  0  0
  1  2  2  0  0  0  0
  1  3  1  0  0  0  0
  3  4  2  0  0  0  0
  4  5  1  0  0  0  0
  5  6  1  0  0  0  0
  6  7  2  0  0  0  0
  8  7  1  0  0  0  0
  8 11  1  0  0  0  0
  9  8  2  0  0  0  0
 10  5  2  0  0  0  0
 10  9  1  0  0  0  0
 11 12  1  0  0  0  0
 13  1  1  0  0  0  0
 14 17  1  6  0  0  0
 14 13  1  0  0  0  0
 15 14  1  0  0  0  0
 16 15  1  0  0  0  0
 18 17  1  0  0  0  0
 19 20  1  0  0  0  0
 20 18  1  0  0  0  0
M  END
>  <MODEL>
3

>  <REMARK>
 VINA RESULT:      -4.4      3.795      8.076
  Name = s3_esm2_f4_ligand
  12 active torsions:
  status: ('A' for Active; 'I' for Inactive)
    1  A    between atoms: C_1  and  C_2
    2  A    between atoms: C_2  and  C_3
    3  A    between atoms: C_3  and  C_4
    4  A    between atoms: C_4  and  C_5
    5  A    between atoms: C_5  and  C_6
    6  A    between atoms: C_5  and  O_8
    7  A    between atoms: C_6  and  C_7
    8  A    between atoms: O_8  and  C_9
    9  A    between atoms: C_9  and  C_11
   10  A    between atoms: C_12  and  C_13
   11  A    between atoms: C_16  and  O_17
   12  A    between atoms: O_17  and  C_18
                            x       y       z     vdW  Elec       q    Type
                         _______ _______ _______ _____ _____    ______ ____

>  <TORSDO>
F 9

$$$$
s3_esm2_f4_ligand
 OpenBabel10092621063D

 20 20  0  0  1  0  0  0  0  0999 V2000
   -0.7080    6.0300   -4.0400 C   0  0  0  0  0  0  0  0  0  0  0  0
   -1.8960    5.8570   -4.0740 O   0  0  0  0  0  0  0  0  0  0  0  0
    0.0670    6.0050   -2.8030 C   0  0  0  0  0  3  0  0  0  0  0  0
    0.5720    7.1210   -2.2910 C   0  0  0  0  0  3  0  0  0  0  0  0
    1.1830    7.1950   -0.9450 C   0  0  0  0  0  0  0  0  0  0  0  0
    0.4080    7.1640    0.1960 C   0  0  0  0  0  3  0  0  0  0  0  0
    1.0040    7.2690    1.4390 C   0  0  0  0  0  3  0  0  0  0  0  0
    2.3550    7.4080    1.5570 C   0  0  0  0  0  0  0  0  0  0  0  0
    3.1320    7.4320    0.4180 C   0  0  0  0  0  3  0  0  0  0  0  0
    2.5410    7.3250   -0.8240 C   0  0  0  0  0  3  0  0  0  0  0  0
    2.8990    7.5190    2.7880 O   0  0  0  0  0  0  0  0  0  0  0  0
    3.6510    6.4450    3.3270 C   0  0  0  0  0  1  0  0  0  0  0  0
    0.0110    6.2930   -5.1620 O   0  0  0  0  0  0  0  0  0  0  0  0
    1.0610    5.4170   -5.5280 C   0  0  1  0  0  3  0  0  0  0  0  0
    0.7420    4.7420   -6.8400 C   0  0  0  0  0  2  0  0  0  0  0  0
    1.4730    5.3050   -8.0230 C   0  0  0  0  0  1  0  0  0  0  0  0
    2.3520    6.2130   -5.6670 C   0  0  0  0  0  2  0  0  0  0  0  0
    3.3190    5.8940   -4.5630 C   0  0  0  0  0  2  0  0  0  0  0  0
    3.4530    4.2830   -2.6560 C   0  0  0  0  0  1  0  0  0  0  0  0
    3.2240    4.4430   -4.1620 C   0  0  0  0  0  2  0  0  0  0  0  0
  1  3  1  0  0  0  0
  2  1  2  0  0  0  0
  3  4  2  0  0  0  0
  4  5  1  0  0  0  0
  5 10  2  0  0  0  0
  5  6  1  0  0  0  0
  6  7  2  0  0  0  0
  7  8  1  0  0  0  0
  8 11  1  0  0  0  0
  9  8  2  0  0  0  0
 10  9  1  0  0  0  0
 11 12  1  0  0  0  0
 13  1  1  0  0  0  0
 14 15  1  6  0  0  0
 14 13  1  0  0  0  0
 16 15  1  0  0  0  0
 17 14  1  0  0  0  0
 17 18  1  0  0  0  0
 18 20  1  0  0  0  0
 20 19  1  0  0  0  0
M  END
>  <MODEL>
4

>  <REMARK>
 VINA RESULT:      -4.4      3.847      7.707
  Name = s3_esm2_f4_ligand
  12 active torsions:
  status: ('A' for Active; 'I' for Inactive)
    1  A    between atoms: C_1  and  C_2
    2  A    between atoms: C_2  and  C_3
    3  A    between atoms: C_3  and  C_4
    4  A    between atoms: C_4  and  C_5
    5  A    between atoms: C_5  and  C_6
    6  A    between atoms: C_5  and  O_8
    7  A    between atoms: C_6  and  C_7
    8  A    between atoms: O_8  and  C_9
    9  A    between atoms: C_9  and  C_11
   10  A    between atoms: C_12  and  C_13
   11  A    between atoms: C_16  and  O_17
   12  A    between atoms: O_17  and  C_18
                            x       y       z     vdW  Elec       q    Type
                         _______ _______ _______ _____ _____    ______ ____

>  <TORSDO>
F 9

$$$$
s3_esm2_f4_ligand
 OpenBabel10092621063D

 20 20  0  0  1  0  0  0  0  0999 V2000
   -0.4740    7.1610   -3.9880 C   0  0  0  0  0  0  0  0  0  0  0  0
   -1.3500    6.3430   -3.9140 O   0  0  0  0  0  0  0  0  0  0  0  0
    0.2230    7.4730   -5.2320 C   0  0  0  0  0  3  0  0  0  0  0  0
    0.9180    6.5440   -5.8770 C   0  0  0  0  0  3  0  0  0  0  0  0
    1.4690    6.7370   -7.2360 C   0  0  0  0  0  0  0  0  0  0  0  0
    0.8220    7.5240   -8.1670 C   0  0  0  0  0  3  0  0  0  0  0  0
    1.3440    7.6580   -9.4410 C   0  0  0  0  0  3  0  0  0  0  0  0
    2.4930    7.0190   -9.7960 C   0  0  0  0  0  0  0  0  0  0  0  0
    3.1450    6.2370   -8.8660 C   0  0  0  0  0  3  0  0  0  0  0  0
    2.6290    6.1020   -7.5930 C   0  0  0  0  0  3  0  0  0  0  0  0
    2.9650    7.1660  -11.0530 O   0  0  0  0  0  0  0  0  0  0  0  0
    4.2550    7.7160  -11.2630 C   0  0  0  0  0  1  0  0  0  0  0  0
   -0.0400    7.8470   -2.9000 O   0  0  0  0  0  0  0  0  0  0  0  0
    0.7110    7.1680   -1.9110 C   0  0  1  0  0  3  0  0  0  0  0  0
    2.1470    7.0260   -2.3530 C   0  0  0  0  0  2  0  0  0  0  0  0
    2.6010    5.6090   -2.5460 C   0  0  0  0  0  1  0  0  0  0  0  0
    0.6560    7.9580   -0.6100 C   0  0  0  0  0  2  0  0  0  0  0  0
    0.2890    7.0810    0.5530 C   0  0  0  0  0  2  0  0  0  0  0  0
    1.7780    5.6590    1.9690 C   0  0  0  0  0  1  0  0  0  0  0  0
    1.3730    7.0890    1.6020 C   0  0  0  0  0  2  0  0  0  0  0  0
  1  2  2  0  0  0  0
  1 13  1  0  0  0  0
  3  1  1  0  0  0  0
  4  3  2  0  0  0  0
  5  4  1  0  0  0  0
  6  5  2  0  0  0  0
  7  6  1  0  0  0  0
  8  7  2  0  0  0  0
  8  9  1  0  0  0  0
  9 10  2  0  0  0  0
 10  5  1  0  0  0  0
 11  8  1  0  0  0  0
 12 11  1  0  0  0  0
 13 14  1  0  0  0  0
 14 15  1  6  0  0  0
 14 17  1  0  0  0  0
 16 15  1  0  0  0  0
 17 18  1  0  0  0  0
 18 20  1  0  0  0  0
 20 19  1  0  0  0  0
M  END
>  <MODEL>
5

>  <REMARK>
 VINA RESULT:      -4.4      4.270      5.612
  Name = s3_esm2_f4_ligand
  12 active torsions:
  status: ('A' for Active; 'I' for Inactive)
    1  A    between atoms: C_1  and  C_2
    2  A    between atoms: C_2  and  C_3
    3  A    between atoms: C_3  and  C_4
    4  A    between atoms: C_4  and  C_5
    5  A    between atoms: C_5  and  C_6
    6  A    between atoms: C_5  and  O_8
    7  A    between atoms: C_6  and  C_7
    8  A    between atoms: O_8  and  C_9
    9  A    between atoms: C_9  and  C_11
   10  A    between atoms: C_12  and  C_13
   11  A    between atoms: C_16  and  O_17
   12  A    between atoms: O_17  and  C_18
                            x       y       z     vdW  Elec       q    Type
                         _______ _______ _______ _____ _____    ______ ____

>  <TORSDO>
F 9

$$$$
s3_esm2_f4_ligand
 OpenBabel10092621063D

 20 20  0  0  1  0  0  0  0  0999 V2000
   -0.7300    6.5870   -3.8960 C   0  0  0  0  0  0  0  0  0  0  0  0
   -1.7430    5.9740   -4.0970 O   0  0  0  0  0  0  0  0  0  0  0  0
    0.1510    6.3200   -2.7630 C   0  0  0  0  0  3  0  0  0  0  0  0
    0.5620    7.3030   -1.9700 C   0  0  0  0  0  3  0  0  0  0  0  0
    1.2780    7.0760   -0.6970 C   0  0  0  0  0  0  0  0  0  0  0  0
    2.5630    6.5740   -0.6770 C   0  0  0  0  0  3  0  0  0  0  0  0
    3.1950    6.3410    0.5320 C   0  0  0  0  0  3  0  0  0  0  0  0
    2.5630    6.5960    1.7120 C   0  0  0  0  0  0  0  0  0  0  0  0
    1.2810    7.1040    1.6940 C   0  0  0  0  0  3  0  0  0  0  0  0
    0.6490    7.3410    0.4910 C   0  0  0  0  0  3  0  0  0  0  0  0
    3.2090    6.3440    2.8710 O   0  0  0  0  0  0  0  0  0  0  0  0
    3.6210    7.4200    3.6980 C   0  0  0  0  0  1  0  0  0  0  0  0
   -0.3350    7.6060   -4.7020 O   0  0  0  0  0  0  0  0  0  0  0  0
    0.3430    7.3080   -5.9080 C   0  0  1  0  0  3  0  0  0  0  0  0
    0.0340    8.3540   -6.9520 C   0  0  0  0  0  2  0  0  0  0  0  0
    0.8170    8.2140   -8.2240 C   0  0  0  0  0  1  0  0  0  0  0  0
    1.8430    7.2810   -5.6450 C   0  0  0  0  0  2  0  0  0  0  0  0
    2.3870    5.8820   -5.6980 C   0  0  0  0  0  2  0  0  0  0  0  0
    2.0890    4.4170   -7.7000 C   0  0  0  0  0  1  0  0  0  0  0  0
    1.4410    4.9590   -6.4230 C   0  0  0  0  0  2  0  0  0  0  0  0
  1  3  1  0  0  0  0
  2  1  2  0  0  0  0
  3  4  2  0  0  0  0
  4  5  1  0  0  0  0
  5  6  2  0  0  0  0
  5 10  1  0  0  0  0
  6  7  1  0  0  0  0
  7  8  2  0  0  0  0
  8 11  1  0  0  0  0
  9  8  1  0  0  0  0
 10  9  2  0  0  0  0
 11 12  1  0  0  0  0
 13  1  1  0  0  0  0
 14 15  1  6  0  0  0
 14 17  1  0  0  0  0
 14 13  1  0  0  0  0
 16 15  1  0  0  0  0
 18 17  1  0  0  0  0
 19 20  1  0  0  0  0
 20 18  1  0  0  0  0
M  END
>  <MODEL>
6

>  <REMARK>
 VINA RESULT:      -4.3      3.956      7.896
  Name = s3_esm2_f4_ligand
  12 active torsions:
  status: ('A' for Active; 'I' for Inactive)
    1  A    between atoms: C_1  and  C_2
    2  A    between atoms: C_2  and  C_3
    3  A    between atoms: C_3  and  C_4
    4  A    between atoms: C_4  and  C_5
    5  A    between atoms: C_5  and  C_6
    6  A    between atoms: C_5  and  O_8
    7  A    between atoms: C_6  and  C_7
    8  A    between atoms: O_8  and  C_9
    9  A    between atoms: C_9  and  C_11
   10  A    between atoms: C_12  and  C_13
   11  A    between atoms: C_16  and  O_17
   12  A    between atoms: O_17  and  C_18
                            x       y       z     vdW  Elec       q    Type
                         _______ _______ _______ _____ _____    ______ ____

>  <TORSDO>
F 9

$$$$
s3_esm2_f4_ligand
 OpenBabel10092621063D

 20 20  0  0  1  0  0  0  0  0999 V2000
    5.3910    1.2430   -6.5390 C   0  0  0  0  0  0  0  0  0  0  0  0
    6.0040    1.2570   -7.5720 O   0  0  0  0  0  0  0  0  0  0  0  0
    4.5500    2.3500   -6.0960 C   0  0  0  0  0  3  0  0  0  0  0  0
    3.7680    3.0000   -6.9510 C   0  0  0  0  0  3  0  0  0  0  0  0
    2.7460    3.9840   -6.5330 C   0  0  0  0  0  0  0  0  0  0  0  0
    2.8360    4.6400   -5.3230 C   0  0  0  0  0  3  0  0  0  0  0  0
    1.8470    5.5310   -4.9450 C   0  0  0  0  0  3  0  0  0  0  0  0
    0.7750    5.7690   -5.7510 C   0  0  0  0  0  0  0  0  0  0  0  0
    0.6870    5.1180   -6.9640 C   0  0  0  0  0  3  0  0  0  0  0  0
    1.6720    4.2320   -7.3460 C   0  0  0  0  0  3  0  0  0  0  0  0
   -0.1750    6.6360   -5.3420 O   0  0  0  0  0  0  0  0  0  0  0  0
   -0.3060    6.9420   -3.9640 C   0  0  0  0  0  1  0  0  0  0  0  0
    5.4550    0.1920   -5.6810 O   0  0  0  0  0  0  0  0  0  0  0  0
    5.6670   -1.1080   -6.1980 C   0  0  1  0  0  3  0  0  0  0  0  0
    6.5690   -1.8950   -5.2770 C   0  0  0  0  0  2  0  0  0  0  0  0
    6.6040   -3.3690   -5.5510 C   0  0  0  0  0  1  0  0  0  0  0  0
    4.3270   -1.8210   -6.3250 C   0  0  0  0  0  2  0  0  0  0  0  0
    3.8330   -1.8170   -7.7430 C   0  0  0  0  0  2  0  0  0  0  0  0
    4.8490   -3.7500   -8.9590 C   0  0  0  0  0  1  0  0  0  0  0  0
    4.9200   -2.2420   -8.6970 C   0  0  0  0  0  2  0  0  0  0  0  0
  1  3  1  0  0  0  0
  1 13  1  0  0  0  0
  2  1  2  0  0  0  0
  4  5  1  0  0  0  0
  4  3  2  0  0  0  0
  5  6  1  0  0  0  0
  6  7  2  0  0  0  0
  8 11  1  0  0  0  0
  8  7  1  0  0  0  0
  9  8  2  0  0  0  0
 10  9  1  0  0  0  0
 10  5  2  0  0  0  0
 11 12  1  0  0  0  0
 14 17  1  1  0  0  0
 14 13  1  0  0  0  0
 14 15  1  0  0  0  0
 16 15  1  0  0  0  0
 18 17  1  0  0  0  0
 19 20  1  0  0  0  0
 20 18  1  0  0  0  0
M  END
>  <MODEL>
7

>  <REMARK>
 VINA RESULT:      -4.3      1.740      7.679
  Name = s3_esm2_f4_ligand
  12 active torsions:
  status: ('A' for Active; 'I' for Inactive)
    1  A    between atoms: C_1  and  C_2
    2  A    between atoms: C_2  and  C_3
    3  A    between atoms: C_3  and  C_4
    4  A    between atoms: C_4  and  C_5
    5  A    between atoms: C_5  and  C_6
    6  A    between atoms: C_5  and  O_8
    7  A    between atoms: C_6  and  C_7
    8  A    between atoms: O_8  and  C_9
    9  A    between atoms: C_9  and  C_11
   10  A    between atoms: C_12  and  C_13
   11  A    between atoms: C_16  and  O_17
   12  A    between atoms: O_17  and  C_18
                            x       y       z     vdW  Elec       q    Type
                         _______ _______ _______ _____ _____    ______ ____

>  <TORSDO>
F 9

$$$$
s3_esm2_f4_ligand
 OpenBabel10092621063D

 20 20  0  0  1  0  0  0  0  0999 V2000
    4.1290    1.3430   -8.7990 C   0  0  0  0  0  0  0  0  0  0  0  0
    3.8520    1.5770   -9.9440 O   0  0  0  0  0  0  0  0  0  0  0  0
    3.7300    2.2050   -7.6910 C   0  0  0  0  0  3  0  0  0  0  0  0
    3.0610    3.3320   -7.9070 C   0  0  0  0  0  3  0  0  0  0  0  0
    2.4510    4.1370   -6.8270 C   0  0  0  0  0  0  0  0  0  0  0  0
    3.1410    4.4170   -5.6650 C   0  0  0  0  0  3  0  0  0  0  0  0
    2.5320    5.1440   -4.6580 C   0  0  0  0  0  3  0  0  0  0  0  0
    1.2510    5.5880   -4.7930 C   0  0  0  0  0  0  0  0  0  0  0  0
    0.5620    5.3140   -5.9560 C   0  0  0  0  0  3  0  0  0  0  0  0
    1.1670    4.5920   -6.9640 C   0  0  0  0  0  3  0  0  0  0  0  0
    0.6880    6.2850   -3.7830 O   0  0  0  0  0  0  0  0  0  0  0  0
    1.4100    6.4950   -2.5820 C   0  0  0  0  0  1  0  0  0  0  0  0
    4.8670    0.2590   -8.4460 O   0  0  0  0  0  0  0  0  0  0  0  0
    4.5530   -0.4280   -7.2490 C   0  0  1  0  0  3  0  0  0  0  0  0
    3.7000   -1.6370   -7.5510 C   0  0  0  0  0  2  0  0  0  0  0  0
    4.4150   -2.7360   -8.2800 C   0  0  0  0  0  1  0  0  0  0  0  0
    5.8430   -0.8730   -6.5730 C   0  0  0  0  0  2  0  0  0  0  0  0
    5.6970   -0.9150   -5.0790 C   0  0  0  0  0  2  0  0  0  0  0  0
    4.6290   -2.6590   -3.6410 C   0  0  0  0  0  1  0  0  0  0  0  0
    5.8070   -2.3280   -4.5630 C   0  0  0  0  0  2  0  0  0  0  0  0
  1 13  1  0  0  0  0
  1  3  1  0  0  0  0
  2  1  2  0  0  0  0
  4  3  2  0  0  0  0
  4  5  1  0  0  0  0
  5  6  1  0  0  0  0
  6  7  2  0  0  0  0
  8  7  1  0  0  0  0
  8 11  1  0  0  0  0
  9  8  2  0  0  0  0
 10  5  2  0  0  0  0
 10  9  1  0  0  0  0
 11 12  1  0  0  0  0
 13 14  1  0  0  0  0
 14 15  1  6  0  0  0
 14 17  1  0  0  0  0
 16 15  1  0  0  0  0
 17 18  1  0  0  0  0
 18 20  1  0  0  0  0
 20 19  1  0  0  0  0
M  END
>  <MODEL>
8

>  <REMARK>
 VINA RESULT:      -4.3      1.986      7.010
  Name = s3_esm2_f4_ligand
  12 active torsions:
  status: ('A' for Active; 'I' for Inactive)
    1  A    between atoms: C_1  and  C_2
    2  A    between atoms: C_2  and  C_3
    3  A    between atoms: C_3  and  C_4
    4  A    between atoms: C_4  and  C_5
    5  A    between atoms: C_5  and  C_6
    6  A    between atoms: C_5  and  O_8
    7  A    between atoms: C_6  and  C_7
    8  A    between atoms: O_8  and  C_9
    9  A    between atoms: C_9  and  C_11
   10  A    between atoms: C_12  and  C_13
   11  A    between atoms: C_16  and  O_17
   12  A    between atoms: O_17  and  C_18
                            x       y       z     vdW  Elec       q    Type
                         _______ _______ _______ _____ _____    ______ ____

>  <TORSDO>
F 9

$$$$
s3_esm2_f4_ligand
 OpenBabel10092621063D

 20 20  0  0  1  0  0  0  0  0999 V2000
    0.7300    7.6840   -1.0760 C   0  0  0  0  0  0  0  0  0  0  0  0
   -0.1950    8.3750   -0.7470 O   0  0  0  0  0  0  0  0  0  0  0  0
    1.6120    7.0230   -0.1190 C   0  0  0  0  0  3  0  0  0  0  0  0
    1.3030    6.9700    1.1710 C   0  0  0  0  0  3  0  0  0  0  0  0
    2.0410    6.1440    2.1510 C   0  0  0  0  0  0  0  0  0  0  0  0
    3.1660    6.6240    2.7900 C   0  0  0  0  0  3  0  0  0  0  0  0
    3.8550    5.8160    3.6770 C   0  0  0  0  0  3  0  0  0  0  0  0
    3.4400    4.5430    3.9290 C   0  0  0  0  0  0  0  0  0  0  0  0
    2.3130    4.0630    3.2960 C   0  0  0  0  0  3  0  0  0  0  0  0
    1.6210    4.8670    2.4130 C   0  0  0  0  0  3  0  0  0  0  0  0
    4.1460    3.7810    4.7920 O   0  0  0  0  0  0  0  0  0  0  0  0
    4.2240    2.3790    4.5950 C   0  0  0  0  0  1  0  0  0  0  0  0
    1.0470    7.4830   -2.3820 O   0  0  0  0  0  0  0  0  0  0  0  0
    0.9550    6.1770   -2.9200 C   0  0  1  0  0  3  0  0  0  0  0  0
   -0.1450    6.1150   -3.9520 C   0  0  0  0  0  2  0  0  0  0  0  0
   -1.2230    5.1150   -3.6530 C   0  0  0  0  0  1  0  0  0  0  0  0
    2.2820    5.8100   -3.5700 C   0  0  0  0  0  2  0  0  0  0  0  0
    2.9050    4.6110   -2.9120 C   0  0  0  0  0  2  0  0  0  0  0  0
    3.9690    4.1980   -0.6890 C   0  0  0  0  0  1  0  0  0  0  0  0
    4.0170    5.0210   -1.9790 C   0  0  0  0  0  2  0  0  0  0  0  0
  1  2  2  0  0  0  0
  1  3  1  0  0  0  0
  3  4  2  0  0  0  0
  4  5  1  0  0  0  0
  5 10  2  0  0  0  0
  5  6  1  0  0  0  0
  6  7  2  0  0  0  0
  7  8  1  0  0  0  0
  8 11  1  0  0  0  0
  9  8  2  0  0  0  0
 10  9  1  0  0  0  0
 12 11  1  0  0  0  0
 13  1  1  0  0  0  0
 14 15  1  6  0  0  0
 14 13  1  0  0  0  0
 15 16  1  0  0  0  0
 17 14  1  0  0  0  0
 17 18  1  0  0  0  0
 18 20  1  0  0  0  0
 20 19  1  0  0  0  0
M  END
>  <MODEL>
9

>  <REMARK>
 VINA RESULT:      -4.2      5.016      8.461
  Name = s3_esm2_f4_ligand
  12 active torsions:
  status: ('A' for Active; 'I' for Inactive)
    1  A    between atoms: C_1  and  C_2
    2  A    between atoms: C_2  and  C_3
    3  A    between atoms: C_3  and  C_4
    4  A    between atoms: C_4  and  C_5
    5  A    between atoms: C_5  and  C_6
    6  A    between atoms: C_5  and  O_8
    7  A    between atoms: C_6  and  C_7
    8  A    between atoms: O_8  and  C_9
    9  A    between atoms: C_9  and  C_11
   10  A    between atoms: C_12  and  C_13
   11  A    between atoms: C_16  and  O_17
   12  A    between atoms: O_17  and  C_18
                            x       y       z     vdW  Elec       q    Type
                         _______ _______ _______ _____ _____    ______ ____

>  <TORSDO>
F 9

$$$$
