orig_f12_pose0_reference
     RDKit          3D

 20 20  0  0  0  0  0  0  0  0999 V2000
   -5.2020    7.1310    5.7940 C   0  0  0  0  0  0  0  0  0  0  0  0
   -4.5810    8.0250    4.7480 C   0  0  0  0  0  0  0  0  0  0  0  0
   -3.5490    7.3000    3.9320 C   0  0  0  0  0  0  0  0  0  0  0  0
   -2.9210    8.1910    2.9110 C   0  0  0  0  0  0  0  0  0  0  0  0
   -1.8360    7.5210    2.0960 C   0  0  2  0  0  0  0  0  0  0  0  0
   -1.1360    8.5240    1.1920 C   0  0  0  0  0  0  0  0  0  0  0  0
   -1.5900    8.5110   -0.2560 C   0  0  0  0  0  0  0  0  0  0  0  0
   -2.4230    6.5090    1.3140 O   0  0  0  0  0  0  0  0  0  0  0  0
   -2.0110    5.2580    1.4620 C   0  0  0  0  0  0  0  0  0  0  0  0
   -1.3270    4.8960    2.3950 O   0  0  0  0  0  0  0  0  0  0  0  0
   -2.4290    4.3920    0.3520 C   0  0  0  0  0  0  0  0  0  0  0  0
   -1.7530    3.2620    0.1130 C   0  0  0  0  0  0  0  0  0  0  0  0
   -2.0350    2.4030   -1.0500 C   0  0  0  0  0  0  0  0  0  0  0  0
   -3.1230    2.6110   -1.8670 C   0  0  0  0  0  0  0  0  0  0  0  0
   -3.3370    1.8060   -2.9740 C   0  0  0  0  0  0  0  0  0  0  0  0
   -2.4680    0.7870   -3.2570 C   0  0  0  0  0  0  0  0  0  0  0  0
   -2.6190   -0.0270   -4.3430 O   0  0  0  0  0  0  0  0  0  0  0  0
   -3.8690   -0.0780   -5.0200 C   0  0  0  0  0  0  0  0  0  0  0  0
   -1.3710    0.5720   -2.4440 C   0  0  0  0  0  0  0  0  0  0  0  0
   -1.1660    1.3770   -1.3300 C   0  0  0  0  0  0  0  0  0  0  0  0
  2  1  1  0
  3  2  1  0
  4  3  1  0
  5  4  1  6
  6  5  1  0
  7  6  1  0
  8  5  1  0
  9  8  1  0
 10  9  2  0
 11  9  1  0
 12 11  2  3
 13 12  1  0
 14 13  1  0
 15 14  2  0
 16 15  1  0
 17 16  1  0
 18 17  1  0
 19 16  2  0
 20 19  1  0
 20 13  2  0
M  END
>  <structure>  (1) 
orig_f12

>  <pose>  (1) 
0

>  <is_reference>  (1) 
1

>  <rmsd_to_reference_A>  (1) 
0.000

>  <vina_score>  (1) 


$$$$
