bg33_1_ligand
 OpenBabel10092621123D

 20 20  0  0  1  0  0  0  0  0999 V2000
    3.9310  -11.8360    2.9190 C   0  0  0  0  0  0  0  0  0  0  0  0
    3.1060  -12.5050    3.4820 O   0  0  0  0  0  0  0  0  0  0  0  0
    4.1600  -10.4990    3.2960 C   0  0  0  0  0  3  0  0  0  0  0  0
    4.1360   -9.6220    2.3950 C   0  0  0  0  0  3  0  0  0  0  0  0
    4.4900   -8.3030    2.5820 C   0  0  0  0  0  0  0  0  0  0  0  0
    5.5840   -7.7830    2.0090 C   0  0  0  0  0  3  0  0  0  0  0  0
    5.9490   -6.4880    2.1830 C   0  0  0  0  0  3  0  0  0  0  0  0
    5.1280   -5.7100    2.9450 C   0  0  0  0  0  0  0  0  0  0  0  0
    4.0360   -6.1680    3.5200 C   0  0  0  0  0  3  0  0  0  0  0  0
    3.7280   -7.4750    3.3600 C   0  0  0  0  0  3  0  0  0  0  0  0
    5.4240   -4.4510    3.1640 O   0  0  0  0  0  0  0  0  0  0  0  0
    5.8460   -3.7690    2.0320 C   0  0  0  0  0  1  0  0  0  0  0  0
    4.6260  -12.3420    1.9580 O   0  0  0  0  0  0  0  0  0  0  0  0
    5.5720  -13.0640    2.3760 C   0  0  1  0  0  3  0  0  0  0  0  0
    5.2930  -14.5170    2.1960 C   0  0  0  0  0  2  0  0  0  0  0  0
    5.4460  -15.2730    3.3790 C   0  0  0  0  0  1  0  0  0  0  0  0
    6.8640  -12.5960    2.0910 C   0  0  0  0  0  2  0  0  0  0  0  0
    7.5720  -12.1420    3.2330 C   0  0  0  0  0  2  0  0  0  0  0  0
    7.6810   -9.9060    4.1700 C   0  0  0  0  0  1  0  0  0  0  0  0
    7.8180  -10.7480    2.9210 C   0  0  0  0  0  2  0  0  0  0  0  0
  1  3  1  0  0  0  0
  1  2  2  0  0  0  0
  4  5  1  0  0  0  0
  4  3  2  0  0  0  0
  5 10  1  0  0  0  0
  6  7  1  0  0  0  0
  6  5  2  0  0  0  0
  7  8  2  0  0  0  0
  8 11  1  0  0  0  0
  8  9  1  0  0  0  0
 10  9  2  0  0  0  0
 12 11  1  0  0  0  0
 13 14  1  0  0  0  0
 13  1  1  0  0  0  0
 14 17  1  6  0  0  0
 15 14  1  0  0  0  0
 15 16  1  0  0  0  0
 17 18  1  0  0  0  0
 20 18  1  0  0  0  0
 20 19  1  0  0  0  0
M  END
>  <MODEL>
1

>  <REMARK>
 VINA RESULT:      -3.3      0.000      0.000
  Name = bg33_1_ligand
  12 active torsions:
  status: ('A' for Active; 'I' for Inactive)
    1  A    between atoms: C_1  and  C_2
    2  A    between atoms: C_2  and  C_3
    3  A    between atoms: C_3  and  C_4
    4  A    between atoms: C_4  and  C_5
    5  A    between atoms: C_5  and  C_6
    6  A    between atoms: C_5  and  O_8
    7  A    between atoms: C_6  and  C_7
    8  A    between atoms: O_8  and  C_9
    9  A    between atoms: C_9  and  C_11
   10  A    between atoms: C_12  and  C_13
   11  A    between atoms: C_16  and  O_17
   12  A    between atoms: O_17  and  C_18
                            x       y       z     vdW  Elec       q    Type
                         _______ _______ _______ _____ _____    ______ ____

>  <TORSDO>
F 9

$$$$
bg33_1_ligand
 OpenBabel10092621123D

 20 20  0  0  1  0  0  0  0  0999 V2000
    3.9040   -9.0910    2.6850 C   0  0  0  0  0  0  0  0  0  0  0  0
    2.9140   -8.8880    3.3350 O   0  0  0  0  0  0  0  0  0  0  0  0
    4.5110  -10.3620    2.6660 C   0  0  0  0  0  3  0  0  0  0  0  0
    3.7650  -11.3700    2.7440 C   0  0  0  0  0  3  0  0  0  0  0  0
    4.2170  -12.6640    2.8910 C   0  0  0  0  0  0  0  0  0  0  0  0
    3.6210  -13.5230    3.7290 C   0  0  0  0  0  3  0  0  0  0  0  0
    4.0520  -14.7990    3.8880 C   0  0  0  0  0  3  0  0  0  0  0  0
    5.1100  -15.1960    3.1230 C   0  0  0  0  0  0  0  0  0  0  0  0
    5.7230  -14.3960    2.2760 C   0  0  0  0  0  3  0  0  0  0  0  0
    5.2930  -13.1180    2.1780 C   0  0  0  0  0  3  0  0  0  0  0  0
    5.5870  -16.4130    3.2320 O   0  0  0  0  0  0  0  0  0  0  0  0
    5.8680  -16.7910    4.5360 C   0  0  0  0  0  1  0  0  0  0  0  0
    4.4250   -8.1390    1.9880 O   0  0  0  0  0  0  0  0  0  0  0  0
    5.5320   -7.7520    2.4530 C   0  0  1  0  0  3  0  0  0  0  0  0
    6.6420   -7.9110    1.4710 C   0  0  0  0  0  2  0  0  0  0  0  0
    7.8000   -8.5070    2.0180 C   0  0  0  0  0  1  0  0  0  0  0  0
    5.4900   -6.5800    3.2230 C   0  0  0  0  0  2  0  0  0  0  0  0
    5.0540   -5.4380    2.5020 C   0  0  0  0  0  2  0  0  0  0  0  0
    6.0430   -3.3410    1.7850 C   0  0  0  0  0  1  0  0  0  0  0  0
    6.0840   -4.4620    2.7990 C   0  0  0  0  0  2  0  0  0  0  0  0
  1  2  2  0  0  0  0
  3  1  1  0  0  0  0
  3  4  2  0  0  0  0
  4  5  1  0  0  0  0
  5  6  1  0  0  0  0
  6  7  2  0  0  0  0
  8 11  1  0  0  0  0
  8  7  1  0  0  0  0
  9  8  2  0  0  0  0
 10  9  1  0  0  0  0
 10  5  2  0  0  0  0
 11 12  1  0  0  0  0
 13 14  1  0  0  0  0
 13  1  1  0  0  0  0
 14 15  1  6  0  0  0
 14 17  1  0  0  0  0
 15 16  1  0  0  0  0
 18 20  1  0  0  0  0
 18 17  1  0  0  0  0
 19 20  1  0  0  0  0
M  END
>  <MODEL>
2

>  <REMARK>
 VINA RESULT:      -3.3      1.982      7.093
  Name = bg33_1_ligand
  12 active torsions:
  status: ('A' for Active; 'I' for Inactive)
    1  A    between atoms: C_1  and  C_2
    2  A    between atoms: C_2  and  C_3
    3  A    between atoms: C_3  and  C_4
    4  A    between atoms: C_4  and  C_5
    5  A    between atoms: C_5  and  C_6
    6  A    between atoms: C_5  and  O_8
    7  A    between atoms: C_6  and  C_7
    8  A    between atoms: O_8  and  C_9
    9  A    between atoms: C_9  and  C_11
   10  A    between atoms: C_12  and  C_13
   11  A    between atoms: C_16  and  O_17
   12  A    between atoms: O_17  and  C_18
                            x       y       z     vdW  Elec       q    Type
                         _______ _______ _______ _____ _____    ______ ____

>  <TORSDO>
F 9

$$$$
bg33_1_ligand
 OpenBabel10092621123D

 20 20  0  0  1  0  0  0  0  0999 V2000
    4.6960   -6.6760    2.6670 C   0  0  0  0  0  0  0  0  0  0  0  0
    3.9130   -6.3170    3.5050 O   0  0  0  0  0  0  0  0  0  0  0  0
    4.7590   -8.0240    2.2650 C   0  0  0  0  0  3  0  0  0  0  0  0
    5.0030   -8.8900    3.1430 C   0  0  0  0  0  3  0  0  0  0  0  0
    5.2460  -10.2210    2.8800 C   0  0  0  0  0  0  0  0  0  0  0  0
    4.2460  -11.1050    2.7610 C   0  0  0  0  0  3  0  0  0  0  0  0
    4.4660  -12.4190    2.5040 C   0  0  0  0  0  3  0  0  0  0  0  0
    5.7610  -12.8080    2.3310 C   0  0  0  0  0  0  0  0  0  0  0  0
    6.7790  -11.9780    2.4250 C   0  0  0  0  0  3  0  0  0  0  0  0
    6.5230  -10.6840    2.7260 C   0  0  0  0  0  3  0  0  0  0  0  0
    6.0490  -14.0650    2.0890 O   0  0  0  0  0  0  0  0  0  0  0  0
    5.0490  -14.9510    2.4600 C   0  0  0  0  0  1  0  0  0  0  0  0
    5.4930   -5.8230    2.1190 O   0  0  0  0  0  0  0  0  0  0  0  0
    6.2730   -5.2880    2.9540 C   0  0  1  0  0  3  0  0  0  0  0  0
    7.5120   -6.0900    3.1590 C   0  0  0  0  0  2  0  0  0  0  0  0
    8.4450   -5.9700    2.1050 C   0  0  0  0  0  1  0  0  0  0  0  0
    6.3930   -3.8930    2.8640 C   0  0  0  0  0  2  0  0  0  0  0  0
    5.7970   -3.3420    1.7010 C   0  0  0  0  0  2  0  0  0  0  0  0
    6.3220   -1.4770    0.2390 C   0  0  0  0  0  1  0  0  0  0  0  0
    6.8790   -2.5670    1.1260 C   0  0  0  0  0  2  0  0  0  0  0  0
  1  2  2  0  0  0  0
  3  1  1  0  0  0  0
  3  4  2  0  0  0  0
  5  4  1  0  0  0  0
  6  5  1  0  0  0  0
  7  6  2  0  0  0  0
  8  9  2  0  0  0  0
  8  7  1  0  0  0  0
  9 10  1  0  0  0  0
 10  5  2  0  0  0  0
 11  8  1  0  0  0  0
 11 12  1  0  0  0  0
 13  1  1  0  0  0  0
 13 14  1  0  0  0  0
 14 17  1  6  0  0  0
 14 15  1  0  0  0  0
 16 15  1  0  0  0  0
 18 17  1  0  0  0  0
 19 20  1  0  0  0  0
 20 18  1  0  0  0  0
M  END
>  <MODEL>
3

>  <REMARK>
 VINA RESULT:      -3.3      1.527      7.281
  Name = bg33_1_ligand
  12 active torsions:
  status: ('A' for Active; 'I' for Inactive)
    1  A    between atoms: C_1  and  C_2
    2  A    between atoms: C_2  and  C_3
    3  A    between atoms: C_3  and  C_4
    4  A    between atoms: C_4  and  C_5
    5  A    between atoms: C_5  and  C_6
    6  A    between atoms: C_5  and  O_8
    7  A    between atoms: C_6  and  C_7
    8  A    between atoms: O_8  and  C_9
    9  A    between atoms: C_9  and  C_11
   10  A    between atoms: C_12  and  C_13
   11  A    between atoms: C_16  and  O_17
   12  A    between atoms: O_17  and  C_18
                            x       y       z     vdW  Elec       q    Type
                         _______ _______ _______ _____ _____    ______ ____

>  <TORSDO>
F 9

$$$$
bg33_1_ligand
 OpenBabel10092621123D

 20 20  0  0  1  0  0  0  0  0999 V2000
    6.2360   -3.2050    2.9120 C   0  0  0  0  0  0  0  0  0  0  0  0
    6.5780   -2.4120    3.7470 O   0  0  0  0  0  0  0  0  0  0  0  0
    5.8410   -4.5090    3.2680 C   0  0  0  0  0  3  0  0  0  0  0  0
    5.2260   -5.1930    2.4110 C   0  0  0  0  0  3  0  0  0  0  0  0
    4.6460   -6.4170    2.6610 C   0  0  0  0  0  0  0  0  0  0  0  0
    5.0360   -7.5230    2.0120 C   0  0  0  0  0  3  0  0  0  0  0  0
    4.4760   -8.7360    2.2440 C   0  0  0  0  0  3  0  0  0  0  0  0
    3.5090   -8.8000    3.2040 C   0  0  0  0  0  0  0  0  0  0  0  0
    3.0970   -7.7460    3.8780 C   0  0  0  0  0  3  0  0  0  0  0  0
    3.6480   -6.5460    3.5890 C   0  0  0  0  0  3  0  0  0  0  0  0
    2.9160   -9.9380    3.4740 O   0  0  0  0  0  0  0  0  0  0  0  0
    3.5200  -11.0390    2.8850 C   0  0  0  0  0  1  0  0  0  0  0  0
    6.2220   -2.8660    1.6670 O   0  0  0  0  0  0  0  0  0  0  0  0
    7.2820   -2.2810    1.3160 C   0  0  1  0  0  3  0  0  0  0  0  0
    8.3450   -3.2420    0.9040 C   0  0  0  0  0  2  0  0  0  0  0  0
    8.8730   -2.9840   -0.3810 C   0  0  0  0  0  1  0  0  0  0  0  0
    7.1080   -1.1170    0.5530 C   0  0  0  0  0  2  0  0  0  0  0  0
    5.8490   -1.0410   -0.0950 C   0  0  0  0  0  2  0  0  0  0  0  0
    6.5530    1.1940   -0.7270 C   0  0  0  0  0  1  0  0  0  0  0  0
    6.1210   -0.1690   -1.2200 C   0  0  0  0  0  2  0  0  0  0  0  0
  1  3  1  0  0  0  0
  1  2  2  0  0  0  0
  4  5  1  0  0  0  0
  4  3  2  0  0  0  0
  5 10  1  0  0  0  0
  6  7  1  0  0  0  0
  6  5  2  0  0  0  0
  7  8  2  0  0  0  0
  8 11  1  0  0  0  0
  8  9  1  0  0  0  0
 10  9  2  0  0  0  0
 12 11  1  0  0  0  0
 13  1  1  0  0  0  0
 14 17  1  6  0  0  0
 14 13  1  0  0  0  0
 15 14  1  0  0  0  0
 16 15  1  0  0  0  0
 18 17  1  0  0  0  0
 20 19  1  0  0  0  0
 20 18  1  0  0  0  0
M  END
>  <MODEL>
4

>  <REMARK>
 VINA RESULT:      -3.3      2.648      8.533
  Name = bg33_1_ligand
  12 active torsions:
  status: ('A' for Active; 'I' for Inactive)
    1  A    between atoms: C_1  and  C_2
    2  A    between atoms: C_2  and  C_3
    3  A    between atoms: C_3  and  C_4
    4  A    between atoms: C_4  and  C_5
    5  A    between atoms: C_5  and  C_6
    6  A    between atoms: C_5  and  O_8
    7  A    between atoms: C_6  and  C_7
    8  A    between atoms: O_8  and  C_9
    9  A    between atoms: C_9  and  C_11
   10  A    between atoms: C_12  and  C_13
   11  A    between atoms: C_16  and  O_17
   12  A    between atoms: O_17  and  C_18
                            x       y       z     vdW  Elec       q    Type
                         _______ _______ _______ _____ _____    ______ ____

>  <TORSDO>
F 9

$$$$
bg33_1_ligand
 OpenBabel10092621123D

 20 20  0  0  1  0  0  0  0  0999 V2000
    5.7420   -7.9270    2.0780 C   0  0  0  0  0  0  0  0  0  0  0  0
    6.8930   -7.6990    1.8160 O   0  0  0  0  0  0  0  0  0  0  0  0
    5.3530   -9.1730    2.6070 C   0  0  0  0  0  3  0  0  0  0  0  0
    4.2530   -9.6540    2.2320 C   0  0  0  0  0  3  0  0  0  0  0  0
    3.6700  -10.7790    2.7720 C   0  0  0  0  0  0  0  0  0  0  0  0
    4.3730  -11.9000    2.9840 C   0  0  0  0  0  3  0  0  0  0  0  0
    3.8150  -13.0170    3.5130 C   0  0  0  0  0  3  0  0  0  0  0  0
    2.4980  -12.9470    3.8620 C   0  0  0  0  0  0  0  0  0  0  0  0
    1.7660  -11.8680    3.6870 C   0  0  0  0  0  3  0  0  0  0  0  0
    2.3450  -10.7870    3.1160 C   0  0  0  0  0  3  0  0  0  0  0  0
    1.8900  -13.9930    4.3700 O   0  0  0  0  0  0  0  0  0  0  0  0
    2.7540  -14.9820    4.8170 C   0  0  0  0  0  1  0  0  0  0  0  0
    4.8430   -7.0240    1.8800 O   0  0  0  0  0  0  0  0  0  0  0  0
    4.8300   -6.1510    2.7900 C   0  0  1  0  0  3  0  0  0  0  0  0
    5.3540   -4.8380    2.3180 C   0  0  0  0  0  2  0  0  0  0  0  0
    6.2650   -4.2370    3.2150 C   0  0  0  0  0  1  0  0  0  0  0  0
    3.6960   -6.1540    3.6160 C   0  0  0  0  0  2  0  0  0  0  0  0
    3.9510   -6.6090    4.9350 C   0  0  0  0  0  2  0  0  0  0  0  0
    1.7280   -7.3460    4.3010 C   0  0  0  0  0  1  0  0  0  0  0  0
    2.9690   -7.6610    5.1040 C   0  0  0  0  0  2  0  0  0  0  0  0
  1  3  1  0  0  0  0
  2  1  2  0  0  0  0
  4  3  2  0  0  0  0
  4  5  1  0  0  0  0
  5  6  2  0  0  0  0
  5 10  1  0  0  0  0
  6  7  1  0  0  0  0
  7  8  2  0  0  0  0
  8 11  1  0  0  0  0
  9  8  1  0  0  0  0
 10  9  2  0  0  0  0
 11 12  1  0  0  0  0
 13  1  1  0  0  0  0
 13 14  1  0  0  0  0
 14 15  1  6  0  0  0
 14 17  1  0  0  0  0
 15 16  1  0  0  0  0
 17 18  1  0  0  0  0
 18 20  1  0  0  0  0
 19 20  1  0  0  0  0
M  END
>  <MODEL>
5

>  <REMARK>
 VINA RESULT:      -3.3      2.109      6.966
  Name = bg33_1_ligand
  12 active torsions:
  status: ('A' for Active; 'I' for Inactive)
    1  A    between atoms: C_1  and  C_2
    2  A    between atoms: C_2  and  C_3
    3  A    between atoms: C_3  and  C_4
    4  A    between atoms: C_4  and  C_5
    5  A    between atoms: C_5  and  C_6
    6  A    between atoms: C_5  and  O_8
    7  A    between atoms: C_6  and  C_7
    8  A    between atoms: O_8  and  C_9
    9  A    between atoms: C_9  and  C_11
   10  A    between atoms: C_12  and  C_13
   11  A    between atoms: C_16  and  O_17
   12  A    between atoms: O_17  and  C_18
                            x       y       z     vdW  Elec       q    Type
                         _______ _______ _______ _____ _____    ______ ____

>  <TORSDO>
F 9

$$$$
bg33_1_ligand
 OpenBabel10092621123D

 20 20  0  0  1  0  0  0  0  0999 V2000
    5.8070   -5.4510    2.5320 C   0  0  0  0  0  0  0  0  0  0  0  0
    6.6930   -5.7890    3.2700 O   0  0  0  0  0  0  0  0  0  0  0  0
    5.6480   -4.1020    2.1600 C   0  0  0  0  0  3  0  0  0  0  0  0
    6.6450   -3.5010    1.6850 C   0  0  0  0  0  3  0  0  0  0  0  0
    6.6880   -2.1500    1.4210 C   0  0  0  0  0  0  0  0  0  0  0  0
    7.3340   -1.2980    2.2280 C   0  0  0  0  0  3  0  0  0  0  0  0
    7.3850    0.0360    1.9850 C   0  0  0  0  0  3  0  0  0  0  0  0
    6.7760    0.4820    0.8490 C   0  0  0  0  0  0  0  0  0  0  0  0
    6.1390   -0.3130    0.0160 C   0  0  0  0  0  3  0  0  0  0  0  0
    6.0710   -1.6310    0.3150 C   0  0  0  0  0  3  0  0  0  0  0  0
    6.7770    1.7610    0.5550 O   0  0  0  0  0  0  0  0  0  0  0  0
    5.6560    2.1750   -0.1490 C   0  0  0  0  0  1  0  0  0  0  0  0
    4.9860   -6.3290    2.0640 O   0  0  0  0  0  0  0  0  0  0  0  0
    4.5160   -7.0750    2.9650 C   0  0  1  0  0  3  0  0  0  0  0  0
    3.3900   -6.4310    3.6990 C   0  0  0  0  0  2  0  0  0  0  0  0
    2.4090   -7.3440    4.1450 C   0  0  0  0  0  1  0  0  0  0  0  0
    4.3970   -8.4320    2.6280 C   0  0  0  0  0  2  0  0  0  0  0  0
    5.6290   -9.1360    2.6480 C   0  0  0  0  0  2  0  0  0  0  0  0
    3.7110  -10.6200    2.7400 C   0  0  0  0  0  1  0  0  0  0  0  0
    5.2110  -10.5020    2.8890 C   0  0  0  0  0  2  0  0  0  0  0  0
  1  2  2  0  0  0  0
  3  1  1  0  0  0  0
  4  3  2  0  0  0  0
  5  4  1  0  0  0  0
  5  6  1  0  0  0  0
  7  6  2  0  0  0  0
  8  7  1  0  0  0  0
  9 10  1  0  0  0  0
  9  8  2  0  0  0  0
 10  5  2  0  0  0  0
 11  8  1  0  0  0  0
 12 11  1  0  0  0  0
 13  1  1  0  0  0  0
 13 14  1  0  0  0  0
 14 17  1  6  0  0  0
 14 15  1  0  0  0  0
 15 16  1  0  0  0  0
 17 18  1  0  0  0  0
 18 20  1  0  0  0  0
 19 20  1  0  0  0  0
M  END
>  <MODEL>
6

>  <REMARK>
 VINA RESULT:      -3.3      2.983      6.470
  Name = bg33_1_ligand
  12 active torsions:
  status: ('A' for Active; 'I' for Inactive)
    1  A    between atoms: C_1  and  C_2
    2  A    between atoms: C_2  and  C_3
    3  A    between atoms: C_3  and  C_4
    4  A    between atoms: C_4  and  C_5
    5  A    between atoms: C_5  and  C_6
    6  A    between atoms: C_5  and  O_8
    7  A    between atoms: C_6  and  C_7
    8  A    between atoms: O_8  and  C_9
    9  A    between atoms: C_9  and  C_11
   10  A    between atoms: C_12  and  C_13
   11  A    between atoms: C_16  and  O_17
   12  A    between atoms: O_17  and  C_18
                            x       y       z     vdW  Elec       q    Type
                         _______ _______ _______ _____ _____    ______ ____

>  <TORSDO>
F 9

$$$$
bg33_1_ligand
 OpenBabel10092621123D

 20 20  0  0  1  0  0  0  0  0999 V2000
    4.2370   -6.4980    3.3520 C   0  0  0  0  0  0  0  0  0  0  0  0
    3.0930   -6.3860    3.7040 O   0  0  0  0  0  0  0  0  0  0  0  0
    4.8830   -5.4630    2.6480 C   0  0  0  0  0  3  0  0  0  0  0  0
    5.5780   -4.6490    3.3060 C   0  0  0  0  0  3  0  0  0  0  0  0
    6.1410   -3.5040    2.7840 C   0  0  0  0  0  0  0  0  0  0  0  0
    6.0740   -3.2240    1.4750 C   0  0  0  0  0  3  0  0  0  0  0  0
    6.6220   -2.1040    0.9430 C   0  0  0  0  0  3  0  0  0  0  0  0
    7.2240   -1.2370    1.8080 C   0  0  0  0  0  0  0  0  0  0  0  0
    7.3070   -1.4580    3.1030 C   0  0  0  0  0  3  0  0  0  0  0  0
    6.7870   -2.6080    3.5910 C   0  0  0  0  0  3  0  0  0  0  0  0
    7.7850   -0.1380    1.3630 O   0  0  0  0  0  0  0  0  0  0  0  0
    7.1830    1.0240    1.8220 C   0  0  0  0  0  1  0  0  0  0  0  0
    4.8940   -7.5740    3.6230 O   0  0  0  0  0  0  0  0  0  0  0  0
    4.9800   -8.3470    2.6300 C   0  0  1  0  0  3  0  0  0  0  0  0
    6.3720   -8.8360    2.4160 C   0  0  0  0  0  2  0  0  0  0  0  0
    7.0970   -8.0820    1.4680 C   0  0  0  0  0  1  0  0  0  0  0  0
    3.9260   -9.2610    2.4790 C   0  0  0  0  0  2  0  0  0  0  0  0
    3.8970  -10.2690    3.4760 C   0  0  0  0  0  2  0  0  0  0  0  0
    4.8180  -12.2880    2.4920 C   0  0  0  0  0  1  0  0  0  0  0  0
    3.5720  -11.4590    2.7140 C   0  0  0  0  0  2  0  0  0  0  0  0
  1 13  1  0  0  0  0
  1  2  2  0  0  0  0
  3  4  2  0  0  0  0
  3  1  1  0  0  0  0
  5  4  1  0  0  0  0
  5 10  1  0  0  0  0
  6  5  2  0  0  0  0
  7  6  1  0  0  0  0
  7  8  2  0  0  0  0
  8  9  1  0  0  0  0
  9 10  2  0  0  0  0
 11  8  1  0  0  0  0
 11 12  1  0  0  0  0
 14 15  1  1  0  0  0
 14 13  1  0  0  0  0
 16 15  1  0  0  0  0
 17 14  1  0  0  0  0
 17 18  1  0  0  0  0
 19 20  1  0  0  0  0
 20 18  1  0  0  0  0
M  END
>  <MODEL>
7

>  <REMARK>
 VINA RESULT:      -3.3      2.348      5.219
  Name = bg33_1_ligand
  12 active torsions:
  status: ('A' for Active; 'I' for Inactive)
    1  A    between atoms: C_1  and  C_2
    2  A    between atoms: C_2  and  C_3
    3  A    between atoms: C_3  and  C_4
    4  A    between atoms: C_4  and  C_5
    5  A    between atoms: C_5  and  C_6
    6  A    between atoms: C_5  and  O_8
    7  A    between atoms: C_6  and  C_7
    8  A    between atoms: O_8  and  C_9
    9  A    between atoms: C_9  and  C_11
   10  A    between atoms: C_12  and  C_13
   11  A    between atoms: C_16  and  O_17
   12  A    between atoms: O_17  and  C_18
                            x       y       z     vdW  Elec       q    Type
                         _______ _______ _______ _____ _____    ______ ____

>  <TORSDO>
F 9

$$$$
bg33_1_ligand
 OpenBabel10092621123D

 20 20  0  0  1  0  0  0  0  0999 V2000
    4.4860   -6.8980    2.9430 C   0  0  0  0  0  0  0  0  0  0  0  0
    3.4410   -7.1610    3.4750 O   0  0  0  0  0  0  0  0  0  0  0  0
    5.1600   -5.6940    3.2260 C   0  0  0  0  0  3  0  0  0  0  0  0
    5.1890   -4.8120    2.3310 C   0  0  0  0  0  3  0  0  0  0  0  0
    5.9330   -3.6540    2.4020 C   0  0  0  0  0  0  0  0  0  0  0  0
    6.2740   -2.9720    1.3000 C   0  0  0  0  0  3  0  0  0  0  0  0
    7.0070   -1.8320    1.3500 C   0  0  0  0  0  3  0  0  0  0  0  0
    7.3600   -1.3750    2.5860 C   0  0  0  0  0  0  0  0  0  0  0  0
    7.0410   -2.0010    3.6990 C   0  0  0  0  0  3  0  0  0  0  0  0
    6.3480   -3.1580    3.6080 C   0  0  0  0  0  3  0  0  0  0  0  0
    8.0780   -0.2850    2.7090 O   0  0  0  0  0  0  0  0  0  0  0  0
    7.3840    0.8800    2.4150 C   0  0  0  0  0  1  0  0  0  0  0  0
    5.0090   -7.7240    2.1030 O   0  0  0  0  0  0  0  0  0  0  0  0
    6.1150   -8.1790    2.5010 C   0  0  1  0  0  3  0  0  0  0  0  0
    5.9640   -9.4710    3.2300 C   0  0  0  0  0  2  0  0  0  0  0  0
    5.0640  -10.3670    2.6120 C   0  0  0  0  0  1  0  0  0  0  0  0
    7.1840   -8.0470    1.6020 C   0  0  0  0  0  2  0  0  0  0  0  0
    8.3870   -7.5980    2.2050 C   0  0  0  0  0  2  0  0  0  0  0  0
    9.2020   -5.3520    2.6290 C   0  0  0  0  0  1  0  0  0  0  0  0
    8.5620   -6.2820    1.6240 C   0  0  0  0  0  2  0  0  0  0  0  0
  1  3  1  0  0  0  0
  1  2  2  0  0  0  0
  4  5  1  0  0  0  0
  4  3  2  0  0  0  0
  5 10  1  0  0  0  0
  6  7  1  0  0  0  0
  6  5  2  0  0  0  0
  7  8  2  0  0  0  0
  8 11  1  0  0  0  0
  8  9  1  0  0  0  0
 10  9  2  0  0  0  0
 12 11  1  0  0  0  0
 13 14  1  0  0  0  0
 13  1  1  0  0  0  0
 14 17  1  6  0  0  0
 14 15  1  0  0  0  0
 16 15  1  0  0  0  0
 17 18  1  0  0  0  0
 20 18  1  0  0  0  0
 20 19  1  0  0  0  0
M  END
>  <MODEL>
8

>  <REMARK>
 VINA RESULT:      -3.3      2.760      4.930
  Name = bg33_1_ligand
  12 active torsions:
  status: ('A' for Active; 'I' for Inactive)
    1  A    between atoms: C_1  and  C_2
    2  A    between atoms: C_2  and  C_3
    3  A    between atoms: C_3  and  C_4
    4  A    between atoms: C_4  and  C_5
    5  A    between atoms: C_5  and  C_6
    6  A    between atoms: C_5  and  O_8
    7  A    between atoms: C_6  and  C_7
    8  A    between atoms: O_8  and  C_9
    9  A    between atoms: C_9  and  C_11
   10  A    between atoms: C_12  and  C_13
   11  A    between atoms: C_16  and  O_17
   12  A    between atoms: O_17  and  C_18
                            x       y       z     vdW  Elec       q    Type
                         _______ _______ _______ _____ _____    ______ ____

>  <TORSDO>
F 9

$$$$
bg33_1_ligand
 OpenBabel10092621123D

 20 20  0  0  1  0  0  0  0  0999 V2000
    2.3260   -9.4490    3.7870 C   0  0  0  0  0  0  0  0  0  0  0  0
    1.4760   -9.3810    2.9400 O   0  0  0  0  0  0  0  0  0  0  0  0
    3.0990  -10.6150    3.9460 C   0  0  0  0  0  3  0  0  0  0  0  0
    3.5340  -11.1790    2.9100 C   0  0  0  0  0  3  0  0  0  0  0  0
    4.1690  -12.4010    2.8960 C   0  0  0  0  0  0  0  0  0  0  0  0
    3.6750  -13.4560    3.5590 C   0  0  0  0  0  3  0  0  0  0  0  0
    4.2870  -14.6660    3.5570 C   0  0  0  0  0  3  0  0  0  0  0  0
    5.4250  -14.7840    2.8140 C   0  0  0  0  0  0  0  0  0  0  0  0
    5.9460  -13.7840    2.1360 C   0  0  0  0  0  3  0  0  0  0  0  0
    5.3320  -12.5800    2.1970 C   0  0  0  0  0  3  0  0  0  0  0  0
    6.0760  -15.9220    2.7750 O   0  0  0  0  0  0  0  0  0  0  0  0
    5.3350  -17.0080    3.2170 C   0  0  0  0  0  1  0  0  0  0  0  0
    2.5440   -8.4430    4.5640 O   0  0  0  0  0  0  0  0  0  0  0  0
    2.9360   -7.4240    3.9330 C   0  0  1  0  0  3  0  0  0  0  0  0
    2.0210   -6.2620    4.1160 C   0  0  0  0  0  2  0  0  0  0  0  0
    2.0370   -5.7290    5.4240 C   0  0  0  0  0  1  0  0  0  0  0  0
    4.3190   -7.1890    3.9590 C   0  0  0  0  0  2  0  0  0  0  0  0
    4.8250   -6.6220    2.7620 C   0  0  0  0  0  2  0  0  0  0  0  0
    6.1420   -8.6110    2.3130 C   0  0  0  0  0  1  0  0  0  0  0  0
    4.9540   -7.7750    1.8930 C   0  0  0  0  0  2  0  0  0  0  0  0
  1  3  1  0  0  0  0
  1 13  1  0  0  0  0
  2  1  2  0  0  0  0
  4  3  2  0  0  0  0
  5  4  1  0  0  0  0
  5  6  1  0  0  0  0
  7  6  2  0  0  0  0
  8  7  1  0  0  0  0
  9 10  1  0  0  0  0
  9  8  2  0  0  0  0
 10  5  2  0  0  0  0
 11  8  1  0  0  0  0
 11 12  1  0  0  0  0
 14 17  1  1  0  0  0
 14 15  1  0  0  0  0
 14 13  1  0  0  0  0
 15 16  1  0  0  0  0
 18 17  1  0  0  0  0
 20 19  1  0  0  0  0
 20 18  1  0  0  0  0
M  END
>  <MODEL>
9

>  <REMARK>
 VINA RESULT:      -3.3      2.234      7.065
  Name = bg33_1_ligand
  12 active torsions:
  status: ('A' for Active; 'I' for Inactive)
    1  A    between atoms: C_1  and  C_2
    2  A    between atoms: C_2  and  C_3
    3  A    between atoms: C_3  and  C_4
    4  A    between atoms: C_4  and  C_5
    5  A    between atoms: C_5  and  C_6
    6  A    between atoms: C_5  and  O_8
    7  A    between atoms: C_6  and  C_7
    8  A    between atoms: O_8  and  C_9
    9  A    between atoms: C_9  and  C_11
   10  A    between atoms: C_12  and  C_13
   11  A    between atoms: C_16  and  O_17
   12  A    between atoms: O_17  and  C_18
                            x       y       z     vdW  Elec       q    Type
                         _______ _______ _______ _____ _____    ______ ____

>  <TORSDO>
F 9

$$$$
