bg33_3_ligand
     RDKit          3D

 44 44  0  0  0  0  0  0  0  0999 V2000
    0.3370   12.8572    2.1033 C   0  0  0  0  0  0  0  0  0  0  0  0
   -0.3636   12.9425    0.7298 C   0  0  0  0  0  0  0  0  0  0  0  0
   -1.1313   11.6788    0.5064 C   0  0  0  0  0  0  0  0  0  0  0  0
   -1.5081   11.4568   -0.9750 C   0  0  0  0  0  0  0  0  0  0  0  0
   -2.0137   10.0317   -1.1100 C   0  0  1  0  0  0  0  0  0  0  0  0
   -3.4704   10.0133   -1.0942 C   0  0  0  0  0  0  0  0  0  0  0  0
   -4.0795    9.7744   -2.4432 C   0  0  0  0  0  0  0  0  0  0  0  0
   -1.5550    9.4347   -2.3643 O   0  0  0  0  0  0  0  0  0  0  0  0
   -0.4222    8.8727   -2.3613 C   0  0  0  0  0  0  0  0  0  0  0  0
    0.3289    9.1442   -1.4534 O   0  0  0  0  0  0  0  0  0  0  0  0
   -0.0076    7.8929   -3.5094 C   0  0  0  0  0  0  0  0  0  0  0  0
   -0.2764    6.5748   -3.3688 C   0  0  0  0  0  0  0  0  0  0  0  0
    0.1598    5.5979   -4.3334 C   0  0  0  0  0  0  0  0  0  0  0  0
    1.4911    5.2727   -4.4689 C   0  0  0  0  0  0  0  0  0  0  0  0
    1.9187    4.3260   -5.3278 C   0  0  0  0  0  0  0  0  0  0  0  0
    0.9823    3.6710   -6.0944 C   0  0  0  0  0  0  0  0  0  0  0  0
    1.3303    2.7378   -7.0060 O   0  0  0  0  0  0  0  0  0  0  0  0
    2.5797    2.1047   -6.7923 C   0  0  0  0  0  0  0  0  0  0  0  0
   -0.3374    3.9913   -6.0124 C   0  0  0  0  0  0  0  0  0  0  0  0
   -0.7498    4.9563   -5.1188 C   0  0  0  0  0  0  0  0  0  0  0  0
    0.8430   11.8850    2.1971 H   0  0  0  0  0  0  0  0  0  0  0  0
    1.0779   13.6659    2.1878 H   0  0  0  0  0  0  0  0  0  0  0  0
   -0.4109   12.9600    2.9034 H   0  0  0  0  0  0  0  0  0  0  0  0
   -1.0513   13.8010    0.7173 H   0  0  0  0  0  0  0  0  0  0  0  0
    0.3844   13.0734   -0.0660 H   0  0  0  0  0  0  0  0  0  0  0  0
   -0.5168   10.8309    0.8430 H   0  0  0  0  0  0  0  0  0  0  0  0
   -2.0687   11.7576    1.0767 H   0  0  0  0  0  0  0  0  0  0  0  0
   -2.2962   12.1645   -1.2719 H   0  0  0  0  0  0  0  0  0  0  0  0
   -0.6358   11.6210   -1.6248 H   0  0  0  0  0  0  0  0  0  0  0  0
   -1.6185    9.4525   -0.2624 H   0  0  0  0  0  0  0  0  0  0  0  0
   -3.8013    9.2131   -0.4161 H   0  0  0  0  0  0  0  0  0  0  0  0
   -3.8032   11.0071   -0.7600 H   0  0  0  0  0  0  0  0  0  0  0  0
   -3.7857    8.7789   -2.8071 H   0  0  0  0  0  0  0  0  0  0  0  0
   -5.1755    9.8276   -2.3653 H   0  0  0  0  0  0  0  0  0  0  0  0
   -3.7242   10.5417   -3.1469 H   0  0  0  0  0  0  0  0  0  0  0  0
    0.4930    8.2693   -4.4137 H   0  0  0  0  0  0  0  0  0  0  0  0
   -0.8460    6.2381   -2.4900 H   0  0  0  0  0  0  0  0  0  0  0  0
    2.2320    5.8047   -3.8541 H   0  0  0  0  0  0  0  0  0  0  0  0
    2.9882    4.0834   -5.4135 H   0  0  0  0  0  0  0  0  0  0  0  0
    2.5626    1.0995   -7.2384 H   0  0  0  0  0  0  0  0  0  0  0  0
    3.3773    2.7002   -7.2605 H   0  0  0  0  0  0  0  0  0  0  0  0
    2.7693    2.0231   -5.7117 H   0  0  0  0  0  0  0  0  0  0  0  0
   -1.0710    3.4832   -6.6556 H   0  0  0  0  0  0  0  0  0  0  0  0
   -1.8174    5.2094   -5.0395 H   0  0  0  0  0  0  0  0  0  0  0  0
  2  1  1  0
  3  2  1  0
  4  3  1  0
  5  4  1  0
  6  5  1  0
  7  6  1  0
  8  5  1  0
  9  8  1  0
 10  9  2  0
 11  9  1  0
 12 11  2  3
 13 12  1  0
 14 13  1  0
 15 14  2  0
 16 15  1  0
 17 16  1  0
 18 17  1  0
 19 16  2  0
 20 19  1  0
 20 13  2  0
  1 21  1  0
  1 22  1  0
  1 23  1  0
  2 24  1  0
  2 25  1  0
  3 26  1  0
  3 27  1  0
  4 28  1  0
  4 29  1  0
  5 30  1  1
  6 31  1  0
  6 32  1  0
  7 33  1  0
  7 34  1  0
  7 35  1  0
 11 36  1  0
 12 37  1  0
 14 38  1  0
 15 39  1  0
 18 40  1  0
 18 41  1  0
 18 42  1  0
 19 43  1  0
 20 44  1  0
M  END
$$$$
