bg33_3_ligand
 OpenBabel10092621163D

 20 20  0  0  1  0  0  0  0  0999 V2000
    9.2730   -1.4110   -4.0660 C   0  0  0  0  0  0  0  0  0  0  0  0
    9.7820   -2.1650   -3.2700 O   0  0  0  0  0  0  0  0  0  0  0  0
    8.0660   -1.8490   -4.9620 C   0  0  0  0  0  3  0  0  0  0  0  0
    7.9950   -1.3870   -6.2310 C   0  0  0  0  0  3  0  0  0  0  0  0
    6.8690   -1.6630   -7.0840 C   0  0  0  0  0  0  0  0  0  0  0  0
    6.1170   -2.8060   -6.9280 C   0  0  0  0  0  3  0  0  0  0  0  0
    5.0280   -3.0630   -7.6800 C   0  0  0  0  0  3  0  0  0  0  0  0
    4.6680   -2.1430   -8.6390 C   0  0  0  0  0  0  0  0  0  0  0  0
    5.4080   -1.0210   -8.8460 C   0  0  0  0  0  3  0  0  0  0  0  0
    6.5110   -0.7770   -8.0570 C   0  0  0  0  0  3  0  0  0  0  0  0
    3.6160   -2.3420   -9.4610 O   0  0  0  0  0  0  0  0  0  0  0  0
    3.8970   -3.0400  -10.6630 C   0  0  0  0  0  1  0  0  0  0  0  0
    9.7720   -0.2530   -4.1690 O   0  0  0  0  0  0  0  0  0  0  0  0
    9.2930    0.7710   -3.2420 C   0  0  2  0  0  3  0  0  0  0  0  0
    8.8270    1.9140   -4.0150 C   0  0  0  0  0  2  0  0  0  0  0  0
    7.3640    1.8610   -4.3390 C   0  0  0  0  0  1  0  0  0  0  0  0
   10.3980    1.1970   -2.2920 C   0  0  0  0  0  2  0  0  0  0  0  0
    9.8730    2.3970   -1.4750 C   0  0  0  0  0  2  0  0  0  0  0  0
   10.0910    0.6130    0.2170 C   0  0  0  0  0  1  0  0  0  0  0  0
    9.6160    2.0590   -0.0410 C   0  0  0  0  0  2  0  0  0  0  0  0
  1  2  2  0  0  0  0
  3  1  1  0  0  0  0
  4  3  2  0  0  0  0
  5  6  1  0  0  0  0
  5  4  1  0  0  0  0
  7  6  2  0  0  0  0
  8  7  1  0  0  0  0
  9  8  2  0  0  0  0
  9 10  1  0  0  0  0
 10  5  2  0  0  0  0
 11  8  1  0  0  0  0
 12 11  1  0  0  0  0
 13  1  1  0  0  0  0
 13 14  1  0  0  0  0
 14 15  1  6  0  0  0
 14 17  1  0  0  0  0
 16 15  1  0  0  0  0
 17 18  1  0  0  0  0
 18 20  1  0  0  0  0
 20 19  1  0  0  0  0
M  END
>  <MODEL>
1

>  <REMARK>
 VINA RESULT:      -4.0      0.000      0.000
  Name = bg33_3_ligand
  12 active torsions:
  status: ('A' for Active; 'I' for Inactive)
    1  A    between atoms: C_1  and  C_2
    2  A    between atoms: C_2  and  C_3
    3  A    between atoms: C_3  and  C_4
    4  A    between atoms: C_4  and  C_5
    5  A    between atoms: C_5  and  C_6
    6  A    between atoms: C_5  and  O_8
    7  A    between atoms: C_6  and  C_7
    8  A    between atoms: O_8  and  C_9
    9  A    between atoms: C_9  and  C_11
   10  A    between atoms: C_12  and  C_13
   11  A    between atoms: C_16  and  O_17
   12  A    between atoms: O_17  and  C_18
                            x       y       z     vdW  Elec       q    Type
                         _______ _______ _______ _____ _____    ______ ____

>  <TORSDO>
F 9

$$$$
bg33_3_ligand
 OpenBabel10092621163D

 20 20  0  0  1  0  0  0  0  0999 V2000
   -5.0640   -1.5420    5.5810 C   0  0  0  0  0  0  0  0  0  0  0  0
   -5.9310   -1.5180    6.4240 O   0  0  0  0  0  0  0  0  0  0  0  0
   -3.7520   -0.7010    5.7240 C   0  0  0  0  0  3  0  0  0  0  0  0
   -3.5080   -0.0680    6.8940 C   0  0  0  0  0  3  0  0  0  0  0  0
   -2.3750    0.8030    7.0720 C   0  0  0  0  0  0  0  0  0  0  0  0
   -2.5380    2.1240    7.4240 C   0  0  0  0  0  3  0  0  0  0  0  0
   -1.4920    2.9460    7.6450 C   0  0  0  0  0  3  0  0  0  0  0  0
   -0.2220    2.4360    7.5070 C   0  0  0  0  0  0  0  0  0  0  0  0
   -0.0240    1.1460    7.1260 C   0  0  0  0  0  3  0  0  0  0  0  0
   -1.1090    0.3230    6.9150 C   0  0  0  0  0  3  0  0  0  0  0  0
    0.8780    3.2010    7.6720 O   0  0  0  0  0  0  0  0  0  0  0  0
    1.7210    3.3200    6.5390 C   0  0  0  0  0  1  0  0  0  0  0  0
   -5.2690   -2.2570    4.5580 O   0  0  0  0  0  0  0  0  0  0  0  0
   -6.2520   -1.7770    3.5870 C   0  0  2  0  0  3  0  0  0  0  0  0
   -7.1760   -2.8620    3.2900 C   0  0  0  0  0  2  0  0  0  0  0  0
   -8.2150   -2.5010    2.2700 C   0  0  0  0  0  1  0  0  0  0  0  0
   -5.5690   -1.3090    2.3150 C   0  0  0  0  0  2  0  0  0  0  0  0
   -5.4030    0.2240    2.4130 C   0  0  0  0  0  2  0  0  0  0  0  0
   -7.6350    1.2600    2.2160 C   0  0  0  0  0  1  0  0  0  0  0  0
   -6.4990    0.8810    3.1900 C   0  0  0  0  0  2  0  0  0  0  0  0
  1  3  1  0  0  0  0
  1  2  2  0  0  0  0
  3  4  2  0  0  0  0
  4  5  1  0  0  0  0
  5  6  1  0  0  0  0
  6  7  2  0  0  0  0
  8  7  1  0  0  0  0
  8 11  1  0  0  0  0
  9  8  2  0  0  0  0
 10  5  2  0  0  0  0
 10  9  1  0  0  0  0
 12 11  1  0  0  0  0
 13  1  1  0  0  0  0
 14 17  1  6  0  0  0
 14 13  1  0  0  0  0
 15 14  1  0  0  0  0
 16 15  1  0  0  0  0
 17 18  1  0  0  0  0
 18 20  1  0  0  0  0
 19 20  1  0  0  0  0
M  END
>  <MODEL>
2

>  <REMARK>
 VINA RESULT:      -3.8     14.915     17.361
  Name = bg33_3_ligand
  12 active torsions:
  status: ('A' for Active; 'I' for Inactive)
    1  A    between atoms: C_1  and  C_2
    2  A    between atoms: C_2  and  C_3
    3  A    between atoms: C_3  and  C_4
    4  A    between atoms: C_4  and  C_5
    5  A    between atoms: C_5  and  C_6
    6  A    between atoms: C_5  and  O_8
    7  A    between atoms: C_6  and  C_7
    8  A    between atoms: O_8  and  C_9
    9  A    between atoms: C_9  and  C_11
   10  A    between atoms: C_12  and  C_13
   11  A    between atoms: C_16  and  O_17
   12  A    between atoms: O_17  and  C_18
                            x       y       z     vdW  Elec       q    Type
                         _______ _______ _______ _____ _____    ______ ____

>  <TORSDO>
F 9

$$$$
bg33_3_ligand
 OpenBabel10092621163D

 20 20  0  0  1  0  0  0  0  0999 V2000
   -2.5640   -1.7010    5.5150 C   0  0  0  0  0  0  0  0  0  0  0  0
   -2.5520   -2.7720    6.0760 O   0  0  0  0  0  0  0  0  0  0  0  0
   -3.6050   -1.3690    4.3950 C   0  0  0  0  0  3  0  0  0  0  0  0
   -4.7250   -0.6870    4.7270 C   0  0  0  0  0  3  0  0  0  0  0  0
   -5.7750   -0.4290    3.7760 C   0  0  0  0  0  0  0  0  0  0  0  0
   -6.5460   -1.4510    3.2680 C   0  0  0  0  0  3  0  0  0  0  0  0
   -7.5670   -1.2300    2.4160 C   0  0  0  0  0  3  0  0  0  0  0  0
   -7.8360    0.0680    2.0450 C   0  0  0  0  0  0  0  0  0  0  0  0
   -7.0740    1.0980    2.4990 C   0  0  0  0  0  3  0  0  0  0  0  0
   -6.0410    0.8470    3.3770 C   0  0  0  0  0  3  0  0  0  0  0  0
   -8.8160    0.3720    1.1670 O   0  0  0  0  0  0  0  0  0  0  0  0
   -9.8950   -0.5450    1.1080 C   0  0  0  0  0  1  0  0  0  0  0  0
   -1.6810   -0.8600    5.8510 O   0  0  0  0  0  0  0  0  0  0  0  0
   -1.7540   -0.3110    7.2050 C   0  0  2  0  0  3  0  0  0  0  0  0
   -2.5130    0.9310    7.1600 C   0  0  0  0  0  2  0  0  0  0  0  0
   -3.7960    0.8770    7.9350 C   0  0  0  0  0  1  0  0  0  0  0  0
   -0.3640   -0.0550    7.7580 C   0  0  0  0  0  2  0  0  0  0  0  0
    0.3100    1.0000    6.8530 C   0  0  0  0  0  2  0  0  0  0  0  0
    1.7470    3.0070    6.8610 C   0  0  0  0  0  1  0  0  0  0  0  0
    1.5300    1.6060    7.4710 C   0  0  0  0  0  2  0  0  0  0  0  0
  1 13  1  0  0  0  0
  1  2  2  0  0  0  0
  3  4  2  0  0  0  0
  3  1  1  0  0  0  0
  5  4  1  0  0  0  0
  6  5  2  0  0  0  0
  7  6  1  0  0  0  0
  8  7  2  0  0  0  0
  8  9  1  0  0  0  0
  9 10  2  0  0  0  0
 10  5  1  0  0  0  0
 11  8  1  0  0  0  0
 12 11  1  0  0  0  0
 13 14  1  0  0  0  0
 14 15  1  6  0  0  0
 14 17  1  0  0  0  0
 15 16  1  0  0  0  0
 18 20  1  0  0  0  0
 18 17  1  0  0  0  0
 19 20  1  0  0  0  0
M  END
>  <MODEL>
3

>  <REMARK>
 VINA RESULT:      -3.8     14.776     15.605
  Name = bg33_3_ligand
  12 active torsions:
  status: ('A' for Active; 'I' for Inactive)
    1  A    between atoms: C_1  and  C_2
    2  A    between atoms: C_2  and  C_3
    3  A    between atoms: C_3  and  C_4
    4  A    between atoms: C_4  and  C_5
    5  A    between atoms: C_5  and  C_6
    6  A    between atoms: C_5  and  O_8
    7  A    between atoms: C_6  and  C_7
    8  A    between atoms: O_8  and  C_9
    9  A    between atoms: C_9  and  C_11
   10  A    between atoms: C_12  and  C_13
   11  A    between atoms: C_16  and  O_17
   12  A    between atoms: O_17  and  C_18
                            x       y       z     vdW  Elec       q    Type
                         _______ _______ _______ _____ _____    ______ ____

>  <TORSDO>
F 9

$$$$
bg33_3_ligand
 OpenBabel10092621163D

 20 20  0  0  1  0  0  0  0  0999 V2000
   -7.8270    0.7610    2.2590 C   0  0  0  0  0  0  0  0  0  0  0  0
   -8.4520    0.6830    1.2260 O   0  0  0  0  0  0  0  0  0  0  0  0
   -7.5020    2.1390    2.9240 C   0  0  0  0  0  3  0  0  0  0  0  0
   -8.0480    3.2600    2.4020 C   0  0  0  0  0  3  0  0  0  0  0  0
   -7.7210    4.5740    2.8940 C   0  0  0  0  0  0  0  0  0  0  0  0
   -7.2840    4.7640    4.1860 C   0  0  0  0  0  3  0  0  0  0  0  0
   -6.9230    5.9750    4.6550 C   0  0  0  0  0  3  0  0  0  0  0  0
   -7.0040    7.0530    3.8030 C   0  0  0  0  0  0  0  0  0  0  0  0
   -7.4660    6.9090    2.5320 C   0  0  0  0  0  3  0  0  0  0  0  0
   -7.8190    5.6580    2.0740 C   0  0  0  0  0  3  0  0  0  0  0  0
   -6.7000    8.3060    4.2050 O   0  0  0  0  0  0  0  0  0  0  0  0
   -5.8980    9.0600    3.3130 C   0  0  0  0  0  1  0  0  0  0  0  0
   -7.4190   -0.3210    2.7720 O   0  0  0  0  0  0  0  0  0  0  0  0
   -6.3840   -1.0610    2.0510 C   0  0  2  0  0  3  0  0  0  0  0  0
   -6.4900   -2.4690    2.4060 C   0  0  0  0  0  2  0  0  0  0  0  0
   -7.8980   -2.9840    2.3990 C   0  0  0  0  0  1  0  0  0  0  0  0
   -5.0030   -0.5350    2.4020 C   0  0  0  0  0  2  0  0  0  0  0  0
   -4.2480   -1.6640    3.1370 C   0  0  0  0  0  2  0  0  0  0  0  0
   -2.4200   -1.7610    4.7920 C   0  0  0  0  0  1  0  0  0  0  0  0
   -3.8700   -1.2980    4.5370 C   0  0  0  0  0  2  0  0  0  0  0  0
  1 13  1  0  0  0  0
  1  3  1  0  0  0  0
  2  1  2  0  0  0  0
  4  5  1  0  0  0  0
  4  3  2  0  0  0  0
  5  6  1  0  0  0  0
  6  7  2  0  0  0  0
  8 11  1  0  0  0  0
  8  7  1  0  0  0  0
  9  8  2  0  0  0  0
 10  9  1  0  0  0  0
 10  5  2  0  0  0  0
 12 11  1  0  0  0  0
 14 17  1  1  0  0  0
 14 15  1  0  0  0  0
 14 13  1  0  0  0  0
 16 15  1  0  0  0  0
 17 18  1  0  0  0  0
 18 20  1  0  0  0  0
 20 19  1  0  0  0  0
M  END
>  <MODEL>
4

>  <REMARK>
 VINA RESULT:      -3.8     16.388     18.031
  Name = bg33_3_ligand
  12 active torsions:
  status: ('A' for Active; 'I' for Inactive)
    1  A    between atoms: C_1  and  C_2
    2  A    between atoms: C_2  and  C_3
    3  A    between atoms: C_3  and  C_4
    4  A    between atoms: C_4  and  C_5
    5  A    between atoms: C_5  and  C_6
    6  A    between atoms: C_5  and  O_8
    7  A    between atoms: C_6  and  C_7
    8  A    between atoms: O_8  and  C_9
    9  A    between atoms: C_9  and  C_11
   10  A    between atoms: C_12  and  C_13
   11  A    between atoms: C_16  and  O_17
   12  A    between atoms: O_17  and  C_18
                            x       y       z     vdW  Elec       q    Type
                         _______ _______ _______ _____ _____    ______ ____

>  <TORSDO>
F 9

$$$$
bg33_3_ligand
 OpenBabel10092621163D

 20 20  0  0  1  0  0  0  0  0999 V2000
   -3.1970    6.4890  -11.3730 C   0  0  0  0  0  0  0  0  0  0  0  0
   -3.7630    7.4750  -11.7850 O   0  0  0  0  0  0  0  0  0  0  0  0
   -3.8490    5.0690  -11.4540 C   0  0  0  0  0  3  0  0  0  0  0  0
   -3.9850    4.3480  -10.3190 C   0  0  0  0  0  3  0  0  0  0  0  0
   -4.4830    2.9970  -10.3240 C   0  0  0  0  0  0  0  0  0  0  0  0
   -5.3300    2.5440   -9.3370 C   0  0  0  0  0  3  0  0  0  0  0  0
   -5.8510    1.3000   -9.3470 C   0  0  0  0  0  3  0  0  0  0  0  0
   -5.5120    0.4610  -10.3840 C   0  0  0  0  0  0  0  0  0  0  0  0
   -4.6500    0.8630  -11.3560 C   0  0  0  0  0  3  0  0  0  0  0  0
   -4.1390    2.1420  -11.3290 C   0  0  0  0  0  3  0  0  0  0  0  0
   -5.9570   -0.8120  -10.4490 O   0  0  0  0  0  0  0  0  0  0  0  0
   -6.0510   -1.3650  -11.7500 C   0  0  0  0  0  1  0  0  0  0  0  0
   -2.0590    6.6520  -10.8450 O   0  0  0  0  0  0  0  0  0  0  0  0
   -1.9410    7.6640   -9.7960 C   0  0  2  0  0  3  0  0  0  0  0  0
   -0.5550    8.1050   -9.7320 C   0  0  0  0  0  2  0  0  0  0  0  0
    0.3900    7.2210  -10.4890 C   0  0  0  0  0  1  0  0  0  0  0  0
   -2.3740    7.1020   -8.4540 C   0  0  0  0  0  2  0  0  0  0  0  0
   -3.6720    7.8310   -8.0410 C   0  0  0  0  0  2  0  0  0  0  0  0
   -3.4820   10.2450   -7.5610 C   0  0  0  0  0  1  0  0  0  0  0  0
   -3.7950    9.1920   -8.6470 C   0  0  0  0  0  2  0  0  0  0  0  0
  1 13  1  0  0  0  0
  2  1  2  0  0  0  0
  3  1  1  0  0  0  0
  3  4  2  0  0  0  0
  5  4  1  0  0  0  0
  5  6  1  0  0  0  0
  7  6  2  0  0  0  0
  8  7  1  0  0  0  0
  9 10  1  0  0  0  0
  9  8  2  0  0  0  0
 10  5  2  0  0  0  0
 11  8  1  0  0  0  0
 12 11  1  0  0  0  0
 13 14  1  0  0  0  0
 14 15  1  1  0  0  0
 14 17  1  0  0  0  0
 16 15  1  0  0  0  0
 17 18  1  0  0  0  0
 20 18  1  0  0  0  0
 20 19  1  0  0  0  0
M  END
>  <MODEL>
5

>  <REMARK>
 VINA RESULT:      -3.8     12.681     14.008
  Name = bg33_3_ligand
  12 active torsions:
  status: ('A' for Active; 'I' for Inactive)
    1  A    between atoms: C_1  and  C_2
    2  A    between atoms: C_2  and  C_3
    3  A    between atoms: C_3  and  C_4
    4  A    between atoms: C_4  and  C_5
    5  A    between atoms: C_5  and  C_6
    6  A    between atoms: C_5  and  O_8
    7  A    between atoms: C_6  and  C_7
    8  A    between atoms: O_8  and  C_9
    9  A    between atoms: C_9  and  C_11
   10  A    between atoms: C_12  and  C_13
   11  A    between atoms: C_16  and  O_17
   12  A    between atoms: O_17  and  C_18
                            x       y       z     vdW  Elec       q    Type
                         _______ _______ _______ _____ _____    ______ ____

>  <TORSDO>
F 9

$$$$
bg33_3_ligand
 OpenBabel10092621163D

 20 20  0  0  1  0  0  0  0  0999 V2000
   -6.6020    9.7370   -4.5190 C   0  0  0  0  0  0  0  0  0  0  0  0
   -7.3730   10.5260   -5.0130 O   0  0  0  0  0  0  0  0  0  0  0  0
   -5.7460   10.0990   -3.2600 C   0  0  0  0  0  3  0  0  0  0  0  0
   -5.8760    9.3460   -2.1450 C   0  0  0  0  0  3  0  0  0  0  0  0
   -5.1990    9.6730   -0.9160 C   0  0  0  0  0  0  0  0  0  0  0  0
   -5.2000    8.8050    0.1530 C   0  0  0  0  0  3  0  0  0  0  0  0
   -4.5320    9.0660    1.2950 C   0  0  0  0  0  3  0  0  0  0  0  0
   -3.8310   10.2460    1.3840 C   0  0  0  0  0  0  0  0  0  0  0  0
   -3.8360   11.1430    0.3610 C   0  0  0  0  0  3  0  0  0  0  0  0
   -4.5190   10.8490   -0.7990 C   0  0  0  0  0  3  0  0  0  0  0  0
   -3.1680   10.6010    2.5060 O   0  0  0  0  0  0  0  0  0  0  0  0
   -3.3480    9.7470    3.6230 C   0  0  0  0  0  1  0  0  0  0  0  0
   -6.4910    8.6070   -5.0760 O   0  0  0  0  0  0  0  0  0  0  0  0
   -6.8020    8.5270   -6.5030 C   0  0  2  0  0  3  0  0  0  0  0  0
   -7.5030    7.2750   -6.7550 C   0  0  0  0  0  2  0  0  0  0  0  0
   -8.0050    6.6100   -5.5080 C   0  0  0  0  0  1  0  0  0  0  0  0
   -5.5340    8.5920   -7.3360 C   0  0  0  0  0  2  0  0  0  0  0  0
   -5.6650    7.5500   -8.4670 C   0  0  0  0  0  2  0  0  0  0  0  0
   -3.2270    7.5770   -8.0830 C   0  0  0  0  0  1  0  0  0  0  0  0
   -4.3480    7.1650   -9.0610 C   0  0  0  0  0  2  0  0  0  0  0  0
  1  3  1  0  0  0  0
  2  1  2  0  0  0  0
  3  4  2  0  0  0  0
  4  5  1  0  0  0  0
  5 10  2  0  0  0  0
  5  6  1  0  0  0  0
  6  7  2  0  0  0  0
  7  8  1  0  0  0  0
  8 11  1  0  0  0  0
  9  8  2  0  0  0  0
 10  9  1  0  0  0  0
 11 12  1  0  0  0  0
 13  1  1  0  0  0  0
 14 17  1  6  0  0  0
 14 13  1  0  0  0  0
 15 14  1  0  0  0  0
 15 16  1  0  0  0  0
 18 17  1  0  0  0  0
 20 18  1  0  0  0  0
 20 19  1  0  0  0  0
M  END
>  <MODEL>
6

>  <REMARK>
 VINA RESULT:      -3.8     15.305     18.242
  Name = bg33_3_ligand
  12 active torsions:
  status: ('A' for Active; 'I' for Inactive)
    1  A    between atoms: C_1  and  C_2
    2  A    between atoms: C_2  and  C_3
    3  A    between atoms: C_3  and  C_4
    4  A    between atoms: C_4  and  C_5
    5  A    between atoms: C_5  and  C_6
    6  A    between atoms: C_5  and  O_8
    7  A    between atoms: C_6  and  C_7
    8  A    between atoms: O_8  and  C_9
    9  A    between atoms: C_9  and  C_11
   10  A    between atoms: C_12  and  C_13
   11  A    between atoms: C_16  and  O_17
   12  A    between atoms: O_17  and  C_18
                            x       y       z     vdW  Elec       q    Type
                         _______ _______ _______ _____ _____    ______ ____

>  <TORSDO>
F 9

$$$$
bg33_3_ligand
 OpenBabel10092621163D

 20 20  0  0  1  0  0  0  0  0999 V2000
   -8.6850    2.6130    2.4890 C   0  0  0  0  0  0  0  0  0  0  0  0
   -8.4120    3.7150    2.0730 O   0  0  0  0  0  0  0  0  0  0  0  0
   -7.6430    1.7440    3.2680 C   0  0  0  0  0  3  0  0  0  0  0  0
   -6.6650    1.1190    2.5730 C   0  0  0  0  0  3  0  0  0  0  0  0
   -5.7290    0.2240    3.2030 C   0  0  0  0  0  0  0  0  0  0  0  0
   -5.0440   -0.7210    2.4740 C   0  0  0  0  0  3  0  0  0  0  0  0
   -4.1250   -1.5370    3.0310 C   0  0  0  0  0  3  0  0  0  0  0  0
   -3.8770   -1.4120    4.3780 C   0  0  0  0  0  0  0  0  0  0  0  0
   -4.5600   -0.5130    5.1360 C   0  0  0  0  0  3  0  0  0  0  0  0
   -5.4870    0.3150    4.5410 C   0  0  0  0  0  3  0  0  0  0  0  0
   -3.0020   -2.2150    5.0210 O   0  0  0  0  0  0  0  0  0  0  0  0
   -2.6110   -1.7880    6.3150 C   0  0  0  0  0  1  0  0  0  0  0  0
   -9.8460    2.1730    2.2470 O   0  0  0  0  0  0  0  0  0  0  0  0
   -9.9530    0.8200    1.7010 C   0  0  2  0  0  3  0  0  0  0  0  0
  -10.3530    0.9150    0.3040 C   0  0  0  0  0  2  0  0  0  0  0  0
  -11.2060    2.1130    0.0060 C   0  0  0  0  0  1  0  0  0  0  0  0
  -10.9680    0.0030    2.4810 C   0  0  0  0  0  2  0  0  0  0  0  0
  -10.4710   -1.4590    2.5020 C   0  0  0  0  0  2  0  0  0  0  0  0
   -8.2550   -2.5130    2.2350 C   0  0  0  0  0  1  0  0  0  0  0  0
   -9.1240   -1.6090    3.1350 C   0  0  0  0  0  2  0  0  0  0  0  0
  1  3  1  0  0  0  0
  2  1  2  0  0  0  0
  4  5  1  0  0  0  0
  4  3  2  0  0  0  0
  5 10  1  0  0  0  0
  6  7  1  0  0  0  0
  6  5  2  0  0  0  0
  7  8  2  0  0  0  0
  8 11  1  0  0  0  0
  8  9  1  0  0  0  0
 10  9  2  0  0  0  0
 11 12  1  0  0  0  0
 13  1  1  0  0  0  0
 14 15  1  6  0  0  0
 14 13  1  0  0  0  0
 14 17  1  0  0  0  0
 16 15  1  0  0  0  0
 17 18  1  0  0  0  0
 18 20  1  0  0  0  0
 19 20  1  0  0  0  0
M  END
>  <MODEL>
7

>  <REMARK>
 VINA RESULT:      -3.8     16.657     18.364
  Name = bg33_3_ligand
  12 active torsions:
  status: ('A' for Active; 'I' for Inactive)
    1  A    between atoms: C_1  and  C_2
    2  A    between atoms: C_2  and  C_3
    3  A    between atoms: C_3  and  C_4
    4  A    between atoms: C_4  and  C_5
    5  A    between atoms: C_5  and  C_6
    6  A    between atoms: C_5  and  O_8
    7  A    between atoms: C_6  and  C_7
    8  A    between atoms: O_8  and  C_9
    9  A    between atoms: C_9  and  C_11
   10  A    between atoms: C_12  and  C_13
   11  A    between atoms: C_16  and  O_17
   12  A    between atoms: O_17  and  C_18
                            x       y       z     vdW  Elec       q    Type
                         _______ _______ _______ _____ _____    ______ ____

>  <TORSDO>
F 9

$$$$
bg33_3_ligand
 OpenBabel10092621163D

 20 20  0  0  1  0  0  0  0  0999 V2000
   -5.3100    7.2410    1.5330 C   0  0  0  0  0  0  0  0  0  0  0  0
   -4.6350    6.8520    2.4580 O   0  0  0  0  0  0  0  0  0  0  0  0
   -4.8960    8.4840    0.6770 C   0  0  0  0  0  3  0  0  0  0  0  0
   -5.6290    8.7950   -0.4160 C   0  0  0  0  0  3  0  0  0  0  0  0
   -5.2570    9.8620   -1.3100 C   0  0  0  0  0  0  0  0  0  0  0  0
   -4.4160   10.8730   -0.9040 C   0  0  0  0  0  3  0  0  0  0  0  0
   -4.0120   11.8540   -1.7360 C   0  0  0  0  0  3  0  0  0  0  0  0
   -4.4680   11.8350   -3.0340 C   0  0  0  0  0  0  0  0  0  0  0  0
   -5.3290   10.8720   -3.4600 C   0  0  0  0  0  3  0  0  0  0  0  0
   -5.7180    9.8740   -2.5920 C   0  0  0  0  0  3  0  0  0  0  0  0
   -4.1440   12.8010   -3.9200 O   0  0  0  0  0  0  0  0  0  0  0  0
   -4.8090   12.7370   -5.1700 C   0  0  0  0  0  1  0  0  0  0  0  0
   -6.3850    6.6180    1.2970 O   0  0  0  0  0  0  0  0  0  0  0  0
   -7.4060    6.6150    2.3440 C   0  0  2  0  0  3  0  0  0  0  0  0
   -8.3630    5.5560    2.0550 C   0  0  0  0  0  2  0  0  0  0  0  0
   -7.9390    4.2110    2.5640 C   0  0  0  0  0  1  0  0  0  0  0  0
   -8.1140    7.9560    2.4100 C   0  0  0  0  0  2  0  0  0  0  0  0
   -9.0420    8.0540    1.1800 C   0  0  0  0  0  2  0  0  0  0  0  0
   -9.3110    9.3130   -0.9260 C   0  0  0  0  0  1  0  0  0  0  0  0
   -9.0970    9.4310    0.5980 C   0  0  0  0  0  2  0  0  0  0  0  0
  1  2  2  0  0  0  0
  3  1  1  0  0  0  0
  4  3  2  0  0  0  0
  5  6  1  0  0  0  0
  5  4  1  0  0  0  0
  7  6  2  0  0  0  0
  8  7  1  0  0  0  0
  9  8  2  0  0  0  0
  9 10  1  0  0  0  0
 10  5  2  0  0  0  0
 11  8  1  0  0  0  0
 12 11  1  0  0  0  0
 13  1  1  0  0  0  0
 13 14  1  0  0  0  0
 14 15  1  6  0  0  0
 14 17  1  0  0  0  0
 15 16  1  0  0  0  0
 18 17  1  0  0  0  0
 19 20  1  0  0  0  0
 20 18  1  0  0  0  0
M  END
>  <MODEL>
8

>  <REMARK>
 VINA RESULT:      -3.8     17.003     18.443
  Name = bg33_3_ligand
  12 active torsions:
  status: ('A' for Active; 'I' for Inactive)
    1  A    between atoms: C_1  and  C_2
    2  A    between atoms: C_2  and  C_3
    3  A    between atoms: C_3  and  C_4
    4  A    between atoms: C_4  and  C_5
    5  A    between atoms: C_5  and  C_6
    6  A    between atoms: C_5  and  O_8
    7  A    between atoms: C_6  and  C_7
    8  A    between atoms: O_8  and  C_9
    9  A    between atoms: C_9  and  C_11
   10  A    between atoms: C_12  and  C_13
   11  A    between atoms: C_16  and  O_17
   12  A    between atoms: O_17  and  C_18
                            x       y       z     vdW  Elec       q    Type
                         _______ _______ _______ _____ _____    ______ ____

>  <TORSDO>
F 9

$$$$
bg33_3_ligand
 OpenBabel10092621163D

 20 20  0  0  1  0  0  0  0  0999 V2000
   -7.6430    8.6240    0.8780 C   0  0  0  0  0  0  0  0  0  0  0  0
   -8.7100    8.2320    0.4670 O   0  0  0  0  0  0  0  0  0  0  0  0
   -6.8280    9.7320    0.1310 C   0  0  0  0  0  3  0  0  0  0  0  0
   -6.1300    9.3930   -0.9760 C   0  0  0  0  0  3  0  0  0  0  0  0
   -5.2780   10.3300   -1.6620 C   0  0  0  0  0  0  0  0  0  0  0  0
   -5.4370   10.5900   -3.0040 C   0  0  0  0  0  3  0  0  0  0  0  0
   -4.6860   11.4990   -3.6580 C   0  0  0  0  0  3  0  0  0  0  0  0
   -3.7270   12.1830   -2.9460 C   0  0  0  0  0  0  0  0  0  0  0  0
   -3.5180   11.9260   -1.6270 C   0  0  0  0  0  3  0  0  0  0  0  0
   -4.3050   10.9990   -0.9800 C   0  0  0  0  0  3  0  0  0  0  0  0
   -2.9070   13.0810   -3.5330 O   0  0  0  0  0  0  0  0  0  0  0  0
   -1.6780   12.5670   -4.0170 C   0  0  0  0  0  1  0  0  0  0  0  0
   -7.1920    8.0840    1.9290 O   0  0  0  0  0  0  0  0  0  0  0  0
   -6.4430    6.8370    1.7780 C   0  0  2  0  0  3  0  0  0  0  0  0
   -7.1980    5.7630    2.4070 C   0  0  0  0  0  2  0  0  0  0  0  0
   -7.8960    6.1820    3.6670 C   0  0  0  0  0  1  0  0  0  0  0  0
   -5.0700    6.9540    2.4140 C   0  0  0  0  0  2  0  0  0  0  0  0
   -4.0950    7.4620    1.3300 C   0  0  0  0  0  2  0  0  0  0  0  0
   -4.1400    9.3670    2.8990 C   0  0  0  0  0  1  0  0  0  0  0  0
   -3.3730    8.7080    1.7320 C   0  0  0  0  0  2  0  0  0  0  0  0
  1 13  1  0  0  0  0
  2  1  2  0  0  0  0
  3  1  1  0  0  0  0
  4  3  2  0  0  0  0
  5 10  1  0  0  0  0
  5  4  1  0  0  0  0
  6  5  2  0  0  0  0
  7  6  1  0  0  0  0
  7  8  2  0  0  0  0
  8  9  1  0  0  0  0
  9 10  2  0  0  0  0
 11  8  1  0  0  0  0
 12 11  1  0  0  0  0
 14 13  1  0  0  0  0
 14 15  1  1  0  0  0
 14 17  1  0  0  0  0
 15 16  1  0  0  0  0
 18 20  1  0  0  0  0
 18 17  1  0  0  0  0
 20 19  1  0  0  0  0
M  END
>  <MODEL>
9

>  <REMARK>
 VINA RESULT:      -3.8     16.493     17.997
  Name = bg33_3_ligand
  12 active torsions:
  status: ('A' for Active; 'I' for Inactive)
    1  A    between atoms: C_1  and  C_2
    2  A    between atoms: C_2  and  C_3
    3  A    between atoms: C_3  and  C_4
    4  A    between atoms: C_4  and  C_5
    5  A    between atoms: C_5  and  C_6
    6  A    between atoms: C_5  and  O_8
    7  A    between atoms: C_6  and  C_7
    8  A    between atoms: O_8  and  C_9
    9  A    between atoms: C_9  and  C_11
   10  A    between atoms: C_12  and  C_13
   11  A    between atoms: C_16  and  O_17
   12  A    between atoms: O_17  and  C_18
                            x       y       z     vdW  Elec       q    Type
                         _______ _______ _______ _____ _____    ______ ____

>  <TORSDO>
F 9

$$$$
