bg33_4_dockpose6
     RDKit          3D

 20 20  0  0  0  0  0  0  0  0999 V2000
   -3.7400    1.8600    6.4620 C   0  0  0  0  0  0  0  0  0  0  0  0
   -3.0980    0.5410    6.1290 C   0  0  0  0  0  0  0  0  0  0  0  0
   -3.6070   -0.6170    6.9840 C   0  0  0  0  0  0  0  0  0  0  0  0
   -2.4900   -1.5100    7.4620 C   0  0  0  0  0  0  0  0  0  0  0  0
   -2.6190   -2.9620    6.8040 C   0  0  1  0  0  0  0  0  0  0  0  0
   -4.0550   -3.3450    6.3410 C   0  0  0  0  0  0  0  0  0  0  0  0
   -4.0290   -4.4270    5.2130 C   0  0  0  0  0  0  0  0  0  0  0  0
   -1.9350   -2.9730    5.5970 O   0  0  0  0  0  0  0  0  0  0  0  0
   -0.4730   -3.0640    5.6000 C   0  0  0  0  0  0  0  0  0  0  0  0
    0.1100   -3.9860    6.2470 O   0  0  0  0  0  0  0  0  0  0  0  0
    0.2340   -2.1330    4.7070 C   0  0  0  0  0  0  0  0  0  0  0  0
   -0.3270   -0.8270    4.5140 C   0  0  0  0  0  0  0  0  0  0  0  0
    0.2910    0.1490    3.5250 C   0  0  0  0  0  0  0  0  0  0  0  0
    0.3760   -0.1150    2.1740 C   0  0  0  0  0  0  0  0  0  0  0  0
    0.9610    0.8300    1.2630 C   0  0  0  0  0  0  0  0  0  0  0  0
    1.4550    2.0730    1.6980 C   0  0  0  0  0  0  0  0  0  0  0  0
    1.9750    3.0430    0.8630 O   0  0  0  0  0  0  0  0  0  0  0  0
    2.9870    2.6580   -0.1010 C   0  0  0  0  0  0  0  0  0  0  0  0
    1.3410    2.3220    3.0630 C   0  0  0  0  0  0  0  0  0  0  0  0
    0.7640    1.3990    3.9470 C   0  0  0  0  0  0  0  0  0  0  0  0
  2  1  1  0
  3  2  1  0
  4  3  1  0
  5  4  1  6
  6  5  1  0
  7  6  1  0
  8  5  1  0
  9  8  1  0
 10  9  2  0
 11  9  1  0
 12 11  2  3
 13 12  1  0
 14 13  1  0
 15 14  2  0
 16 15  1  0
 17 16  1  0
 18 17  1  0
 19 16  2  0
 20 19  1  0
 20 13  2  0
M  END
$$$$
