bgox31_5_dockpose1
     RDKit          3D

 17 18  0  0  0  0  0  0  0  0999 V2000
    5.2750    1.2380   -0.6550 C   0  0  0  0  0  0  0  0  0  0  0  0
    4.4560    0.8170    0.4730 O   0  0  0  0  0  0  0  0  0  0  0  0
    5.0540    0.1790    1.6170 C   0  0  0  0  0  0  0  0  0  0  0  0
    4.1340   -0.4030    2.4300 C   0  0  0  0  0  0  0  0  0  0  0  0
    4.5670   -1.0780    3.5910 C   0  0  0  0  0  0  0  0  0  0  0  0
    5.8970   -1.1880    3.9390 C   0  0  0  0  0  0  0  0  0  0  0  0
    6.2690   -1.9120    5.1310 C   0  0  0  0  0  0  0  0  0  0  0  0
    6.9590   -2.9320    5.0150 O   0  0  0  0  0  0  0  0  0  0  0  0
    5.7370   -1.4940    6.4670 C   0  0  0  0  0  0  0  0  0  0  0  0
    5.8140   -0.2080    6.9720 C   0  0  0  0  0  0  0  0  0  0  0  0
    5.2900    0.1190    8.2530 C   0  0  0  0  0  0  0  0  0  0  0  0
    4.6740   -0.8090    9.0390 C   0  0  0  0  0  0  0  0  0  0  0  0
    4.5550   -2.0920    8.5620 C   0  0  0  0  0  0  0  0  0  0  0  0
    5.1110   -2.4160    7.3020 C   0  0  0  0  0  0  0  0  0  0  0  0
    6.8400   -0.6020    3.0980 C   0  0  0  0  0  0  0  0  0  0  0  0
    8.1560   -0.6800    3.4140 O   0  0  0  0  0  0  0  0  0  0  0  0
    6.4190    0.0810    1.9250 C   0  0  0  0  0  0  0  0  0  0  0  0
  2  1  1  0
  3  2  1  0
  4  3  1  0
  5  4  2  0
  6  5  1  0
  7  6  1  0
  8  7  2  0
  9  7  1  0
 10  9  2  0
 11 10  1  0
 12 11  2  0
 13 12  1  0
 14 13  2  0
 14  9  1  0
 15  6  2  0
 16 15  1  0
 17 15  1  0
 17  3  2  0
M  END
$$$$
