ox2_shuffle_esm0_ligand
 OpenBabel10092621223D

 18 19  0  0  0  0  0  0  0  0999 V2000
    9.7360   -9.4360   -2.6350 C   0  0  0  0  0  0  0  0  0  0  0  0
    9.6370   -8.8770   -3.9030 C   0  0  0  0  0  3  0  0  0  0  0  0
    8.4450   -8.9350   -4.5810 C   0  0  0  0  0  3  0  0  0  0  0  0
    7.3410   -9.5350   -4.0210 C   0  0  0  0  0  0  0  0  0  0  0  0
    7.4480  -10.1120   -2.7630 C   0  0  0  0  0  0  0  0  0  0  0  0
    8.6440  -10.0490   -2.0740 C   0  0  0  0  0  3  0  0  0  0  0  0
   11.4210  -10.5670   -1.3120 C   0  0  0  0  0  1  0  0  0  0  0  0
   10.8790   -9.3890   -1.9140 O   0  0  0  0  0  0  0  0  0  0  0  0
    6.0240   -9.6050   -4.7100 C   0  0  0  0  0  0  0  0  0  0  0  0
    5.7980  -10.5920   -5.3640 O   0  0  0  0  0  0  0  0  0  0  0  0
    4.9510   -8.5960   -4.6050 C   0  0  0  0  0  0  0  0  0  0  0  0
    3.7430   -8.9610   -4.0130 C   0  0  0  0  0  3  0  0  0  0  0  0
    2.7250   -8.0450   -3.8730 C   0  0  0  0  0  3  0  0  0  0  0  0
    2.8810   -6.7490   -4.3210 C   0  0  0  0  0  3  0  0  0  0  0  0
    4.0790   -6.3770   -4.8980 C   0  0  0  0  0  3  0  0  0  0  0  0
    5.1040   -7.2980   -5.0260 C   0  0  0  0  0  3  0  0  0  0  0  0
    6.3570  -10.7250   -2.2310 O   0  0  0  0  0  0  0  0  0  0  0  0
    6.0440  -11.5880   -2.6040 H   0  0  0  0  0  0  0  0  0  0  0  0
  1  6  1  0  0  0  0
  1  8  1  0  0  0  0
  2  1  2  0  0  0  0
  3  4  2  0  0  0  0
  3  2  1  0  0  0  0
  4  5  1  0  0  0  0
  5 17  1  0  0  0  0
  5  6  2  0  0  0  0
  8  7  1  0  0  0  0
  9 11  1  0  0  0  0
  9  4  1  0  0  0  0
 10  9  2  0  0  0  0
 11 12  1  0  0  0  0
 12 13  2  0  0  0  0
 14 13  1  0  0  0  0
 15 14  2  0  0  0  0
 16 15  1  0  0  0  0
 16 11  2  0  0  0  0
 18 17  1  0  0  0  0
M  END
>  <MODEL>
1

>  <REMARK>
 VINA RESULT:      -4.7      0.000      0.000
  Name = ox2_shuffle_esm0_ligand
  5 active torsions:
  status: ('A' for Active; 'I' for Inactive)
    1  A    between atoms: C_1  and  O_2
    2  A    between atoms: O_2  and  C_3
    3  A    between atoms: C_6  and  C_7
    4  A    between atoms: C_7  and  C_9
    5  A    between atoms: C_15  and  O_16
                            x       y       z     vdW  Elec       q    Type
                         _______ _______ _______ _____ _____    ______ ____

>  <TORSDO>
F 4

$$$$
ox2_shuffle_esm0_ligand
 OpenBabel10092621223D

 18 19  0  0  0  0  0  0  0  0999 V2000
    9.3980   -9.8780   -1.1650 C   0  0  0  0  0  0  0  0  0  0  0  0
    8.1030  -10.3730   -1.0720 C   0  0  0  0  0  3  0  0  0  0  0  0
    7.2630  -10.2900   -2.1550 C   0  0  0  0  0  3  0  0  0  0  0  0
    7.6850   -9.7260   -3.3370 C   0  0  0  0  0  0  0  0  0  0  0  0
    8.9720   -9.2130   -3.4200 C   0  0  0  0  0  0  0  0  0  0  0  0
    9.8230   -9.3010   -2.3360 C   0  0  0  0  0  3  0  0  0  0  0  0
   11.2160  -11.0250   -0.0480 C   0  0  0  0  0  1  0  0  0  0  0  0
   10.2730   -9.9530   -0.1380 O   0  0  0  0  0  0  0  0  0  0  0  0
    6.8170   -9.6310   -4.5410 C   0  0  0  0  0  0  0  0  0  0  0  0
    7.0040  -10.4380   -5.4170 O   0  0  0  0  0  0  0  0  0  0  0  0
    5.7070   -8.6750   -4.7190 C   0  0  0  0  0  0  0  0  0  0  0  0
    4.4360   -9.0300   -4.2700 C   0  0  0  0  0  3  0  0  0  0  0  0
    3.3770   -8.1590   -4.3950 C   0  0  0  0  0  3  0  0  0  0  0  0
    3.5560   -6.9180   -4.9720 C   0  0  0  0  0  3  0  0  0  0  0  0
    4.8140   -6.5540   -5.4090 C   0  0  0  0  0  3  0  0  0  0  0  0
    5.8770   -7.4280   -5.2710 C   0  0  0  0  0  3  0  0  0  0  0  0
    9.3700   -8.6340   -4.5850 O   0  0  0  0  0  0  0  0  0  0  0  0
    8.9990   -8.9520   -5.4470 H   0  0  0  0  0  0  0  0  0  0  0  0
  1  2  1  0  0  0  0
  1  8  1  0  0  0  0
  3  2  2  0  0  0  0
  4  3  1  0  0  0  0
  5  4  2  0  0  0  0
  5  6  1  0  0  0  0
  6  1  2  0  0  0  0
  8  7  1  0  0  0  0
  9  4  1  0  0  0  0
 10  9  2  0  0  0  0
 11  9  1  0  0  0  0
 11 12  1  0  0  0  0
 13 12  2  0  0  0  0
 14 13  1  0  0  0  0
 15 16  1  0  0  0  0
 15 14  2  0  0  0  0
 16 11  2  0  0  0  0
 17  5  1  0  0  0  0
 18 17  1  0  0  0  0
M  END
>  <MODEL>
2

>  <REMARK>
 VINA RESULT:      -4.6      1.271      1.902
  Name = ox2_shuffle_esm0_ligand
  5 active torsions:
  status: ('A' for Active; 'I' for Inactive)
    1  A    between atoms: C_1  and  O_2
    2  A    between atoms: O_2  and  C_3
    3  A    between atoms: C_6  and  C_7
    4  A    between atoms: C_7  and  C_9
    5  A    between atoms: C_15  and  O_16
                            x       y       z     vdW  Elec       q    Type
                         _______ _______ _______ _____ _____    ______ ____

>  <TORSDO>
F 4

$$$$
ox2_shuffle_esm0_ligand
 OpenBabel10092621223D

 18 19  0  0  0  0  0  0  0  0999 V2000
    2.7810   -7.6510   -3.8090 C   0  0  0  0  0  0  0  0  0  0  0  0
    2.2210   -6.5010   -3.2680 C   0  0  0  0  0  3  0  0  0  0  0  0
    1.4460   -6.5870   -2.1380 C   0  0  0  0  0  3  0  0  0  0  0  0
    1.2190   -7.7980   -1.5270 C   0  0  0  0  0  0  0  0  0  0  0  0
    1.7620   -8.9490   -2.0820 C   0  0  0  0  0  0  0  0  0  0  0  0
    2.5480   -8.8660   -3.2150 C   0  0  0  0  0  3  0  0  0  0  0  0
    4.5560   -6.6020   -5.0810 C   0  0  0  0  0  1  0  0  0  0  0  0
    3.5680   -7.6220   -4.9090 O   0  0  0  0  0  0  0  0  0  0  0  0
    0.4030   -7.9380   -0.2900 C   0  0  0  0  0  0  0  0  0  0  0  0
    0.9720   -8.3160    0.7030 O   0  0  0  0  0  0  0  0  0  0  0  0
   -1.0250   -7.5890   -0.1670 C   0  0  0  0  0  0  0  0  0  0  0  0
   -1.3720   -6.3730    0.4200 C   0  0  0  0  0  3  0  0  0  0  0  0
   -2.6910   -5.9970    0.5330 C   0  0  0  0  0  3  0  0  0  0  0  0
   -3.6970   -6.8220    0.0700 C   0  0  0  0  0  3  0  0  0  0  0  0
   -3.3620   -8.0230   -0.5240 C   0  0  0  0  0  3  0  0  0  0  0  0
   -2.0340   -8.3900   -0.6460 C   0  0  0  0  0  3  0  0  0  0  0  0
    1.5080  -10.1440   -1.4830 O   0  0  0  0  0  0  0  0  0  0  0  0
    1.0160  -10.1730   -0.6240 H   0  0  0  0  0  0  0  0  0  0  0  0
  1  2  2  0  0  0  0
  1  6  1  0  0  0  0
  2  3  1  0  0  0  0
  3  4  2  0  0  0  0
  4  9  1  0  0  0  0
  5  4  1  0  0  0  0
  5 17  1  0  0  0  0
  6  5  2  0  0  0  0
  7  8  1  0  0  0  0
  8  1  1  0  0  0  0
  9 11  1  0  0  0  0
  9 10  2  0  0  0  0
 11 12  1  0  0  0  0
 12 13  2  0  0  0  0
 14 13  1  0  0  0  0
 15 14  2  0  0  0  0
 16 15  1  0  0  0  0
 16 11  2  0  0  0  0
 17 18  1  0  0  0  0
M  END
>  <MODEL>
3

>  <REMARK>
 VINA RESULT:      -4.5      4.737      7.492
  Name = ox2_shuffle_esm0_ligand
  5 active torsions:
  status: ('A' for Active; 'I' for Inactive)
    1  A    between atoms: C_1  and  O_2
    2  A    between atoms: O_2  and  C_3
    3  A    between atoms: C_6  and  C_7
    4  A    between atoms: C_7  and  C_9
    5  A    between atoms: C_15  and  O_16
                            x       y       z     vdW  Elec       q    Type
                         _______ _______ _______ _____ _____    ______ ____

>  <TORSDO>
F 4

$$$$
ox2_shuffle_esm0_ligand
 OpenBabel10092621223D

 18 19  0  0  0  0  0  0  0  0999 V2000
   -3.8940   -7.2000    0.2090 C   0  0  0  0  0  0  0  0  0  0  0  0
   -3.4390   -8.3880   -0.3510 C   0  0  0  0  0  3  0  0  0  0  0  0
   -2.0940   -8.5800   -0.5420 C   0  0  0  0  0  3  0  0  0  0  0  0
   -1.1830   -7.6130   -0.1830 C   0  0  0  0  0  0  0  0  0  0  0  0
   -1.6410   -6.4180    0.3560 C   0  0  0  0  0  0  0  0  0  0  0  0
   -2.9940   -6.2240    0.5570 C   0  0  0  0  0  3  0  0  0  0  0  0
   -5.9160   -7.6840    1.4520 C   0  0  0  0  0  1  0  0  0  0  0  0
   -5.2060   -6.9670    0.4390 O   0  0  0  0  0  0  0  0  0  0  0  0
    0.2850   -7.7840   -0.3540 C   0  0  0  0  0  0  0  0  0  0  0  0
    0.9260   -8.0440    0.6340 O   0  0  0  0  0  0  0  0  0  0  0  0
    1.0070   -7.7260   -1.6400 C   0  0  0  0  0  0  0  0  0  0  0  0
    1.1410   -8.8950   -2.3880 C   0  0  0  0  0  3  0  0  0  0  0  0
    1.7860   -8.8810   -3.6040 C   0  0  0  0  0  3  0  0  0  0  0  0
    2.3150   -7.7080   -4.1030 C   0  0  0  0  0  3  0  0  0  0  0  0
    2.1760   -6.5430   -3.3740 C   0  0  0  0  0  3  0  0  0  0  0  0
    1.5170   -6.5600   -2.1580 C   0  0  0  0  0  3  0  0  0  0  0  0
   -0.7330   -5.4590    0.6830 O   0  0  0  0  0  0  0  0  0  0  0  0
    0.1300   -5.7150    1.0970 H   0  0  0  0  0  0  0  0  0  0  0  0
  1  8  1  0  0  0  0
  1  6  1  0  0  0  0
  2  1  2  0  0  0  0
  3  2  1  0  0  0  0
  3  4  2  0  0  0  0
  4  5  1  0  0  0  0
  5  6  2  0  0  0  0
  5 17  1  0  0  0  0
  8  7  1  0  0  0  0
  9  4  1  0  0  0  0
  9 10  2  0  0  0  0
 11  9  1  0  0  0  0
 12 11  2  0  0  0  0
 13 12  1  0  0  0  0
 14 13  2  0  0  0  0
 14 15  1  0  0  0  0
 15 16  2  0  0  0  0
 16 11  1  0  0  0  0
 17 18  1  0  0  0  0
M  END
>  <MODEL>
4

>  <REMARK>
 VINA RESULT:      -4.5      6.426     10.070
  Name = ox2_shuffle_esm0_ligand
  5 active torsions:
  status: ('A' for Active; 'I' for Inactive)
    1  A    between atoms: C_1  and  O_2
    2  A    between atoms: O_2  and  C_3
    3  A    between atoms: C_6  and  C_7
    4  A    between atoms: C_7  and  C_9
    5  A    between atoms: C_15  and  O_16
                            x       y       z     vdW  Elec       q    Type
                         _______ _______ _______ _____ _____    ______ ____

>  <TORSDO>
F 4

$$$$
ox2_shuffle_esm0_ligand
 OpenBabel10092621223D

 18 19  0  0  0  0  0  0  0  0999 V2000
   -1.4600   -7.1160    0.8330 C   0  0  0  0  0  0  0  0  0  0  0  0
   -2.1420   -5.9070    0.8800 C   0  0  0  0  0  3  0  0  0  0  0  0
   -3.3420   -5.7760    0.2280 C   0  0  0  0  0  3  0  0  0  0  0  0
   -3.8860   -6.8290   -0.4710 C   0  0  0  0  0  0  0  0  0  0  0  0
   -3.1920   -8.0300   -0.5350 C   0  0  0  0  0  0  0  0  0  0  0  0
   -1.9870   -8.1680    0.1270 C   0  0  0  0  0  3  0  0  0  0  0  0
   -0.1530   -8.2980    2.4960 C   0  0  0  0  0  1  0  0  0  0  0  0
   -0.2840   -7.3060    1.4750 O   0  0  0  0  0  0  0  0  0  0  0  0
   -5.1930   -6.7400   -1.1770 C   0  0  0  0  0  0  0  0  0  0  0  0
   -6.1470   -7.2300   -0.6280 O   0  0  0  0  0  0  0  0  0  0  0  0
   -5.4240   -6.0460   -2.4590 C   0  0  0  0  0  0  0  0  0  0  0  0
   -5.6040   -4.6630   -2.4500 C   0  0  0  0  0  3  0  0  0  0  0  0
   -5.7990   -3.9730   -3.6250 C   0  0  0  0  0  3  0  0  0  0  0  0
   -5.8240   -4.6390   -4.8340 C   0  0  0  0  0  3  0  0  0  0  0  0
   -5.6350   -6.0070   -4.8520 C   0  0  0  0  0  3  0  0  0  0  0  0
   -5.4270   -6.6950   -3.6690 C   0  0  0  0  0  3  0  0  0  0  0  0
   -3.7270   -9.0560   -1.2510 O   0  0  0  0  0  0  0  0  0  0  0  0
   -4.6140   -9.4220   -1.0040 H   0  0  0  0  0  0  0  0  0  0  0  0
  1  2  1  0  0  0  0
  1  8  1  0  0  0  0
  3  2  2  0  0  0  0
  4  3  1  0  0  0  0
  5  4  2  0  0  0  0
  5  6  1  0  0  0  0
  6  1  2  0  0  0  0
  8  7  1  0  0  0  0
  9 10  2  0  0  0  0
  9  4  1  0  0  0  0
 11 12  1  0  0  0  0
 11  9  1  0  0  0  0
 13 12  2  0  0  0  0
 14 13  1  0  0  0  0
 15 14  2  0  0  0  0
 15 16  1  0  0  0  0
 16 11  2  0  0  0  0
 17 18  1  0  0  0  0
 17  5  1  0  0  0  0
M  END
>  <MODEL>
5

>  <REMARK>
 VINA RESULT:      -4.4      9.615     11.381
  Name = ox2_shuffle_esm0_ligand
  5 active torsions:
  status: ('A' for Active; 'I' for Inactive)
    1  A    between atoms: C_1  and  O_2
    2  A    between atoms: O_2  and  C_3
    3  A    between atoms: C_6  and  C_7
    4  A    between atoms: C_7  and  C_9
    5  A    between atoms: C_15  and  O_16
                            x       y       z     vdW  Elec       q    Type
                         _______ _______ _______ _____ _____    ______ ____

>  <TORSDO>
F 4

$$$$
ox2_shuffle_esm0_ligand
 OpenBabel10092621223D

 18 19  0  0  0  0  0  0  0  0999 V2000
    1.1570   -7.5290   -1.6140 C   0  0  0  0  0  0  0  0  0  0  0  0
    1.4710   -8.8770   -1.4890 C   0  0  0  0  0  3  0  0  0  0  0  0
    2.3380   -9.4590   -2.3800 C   0  0  0  0  0  3  0  0  0  0  0  0
    2.9080   -8.7250   -3.3950 C   0  0  0  0  0  0  0  0  0  0  0  0
    2.5770   -7.3840   -3.5300 C   0  0  0  0  0  0  0  0  0  0  0  0
    1.7100   -6.7930   -2.6320 C   0  0  0  0  0  3  0  0  0  0  0  0
   -0.7380   -7.6050   -0.1060 C   0  0  0  0  0  1  0  0  0  0  0  0
    0.3250   -6.9000   -0.7520 O   0  0  0  0  0  0  0  0  0  0  0  0
    3.8680   -9.3080   -4.3710 C   0  0  0  0  0  0  0  0  0  0  0  0
    3.4150   -9.7040   -5.4160 O   0  0  0  0  0  0  0  0  0  0  0  0
    5.3310   -9.3800   -4.1900 C   0  0  0  0  0  0  0  0  0  0  0  0
    5.8460  -10.2330   -3.2150 C   0  0  0  0  0  3  0  0  0  0  0  0
    7.2050  -10.3490   -3.0290 C   0  0  0  0  0  3  0  0  0  0  0  0
    8.0830   -9.6180   -3.8030 C   0  0  0  0  0  3  0  0  0  0  0  0
    7.5820   -8.7790   -4.7800 C   0  0  0  0  0  3  0  0  0  0  0  0
    6.2150   -8.6760   -4.9710 C   0  0  0  0  0  3  0  0  0  0  0  0
    3.1260   -6.6760   -4.5530 O   0  0  0  0  0  0  0  0  0  0  0  0
    4.0790   -6.8080   -4.7910 H   0  0  0  0  0  0  0  0  0  0  0  0
  1  2  1  0  0  0  0
  1  8  1  0  0  0  0
  3  2  2  0  0  0  0
  4  3  1  0  0  0  0
  5  4  2  0  0  0  0
  5  6  1  0  0  0  0
  6  1  2  0  0  0  0
  8  7  1  0  0  0  0
  9 11  1  0  0  0  0
  9  4  1  0  0  0  0
 10  9  2  0  0  0  0
 11 12  1  0  0  0  0
 12 13  2  0  0  0  0
 14 13  1  0  0  0  0
 15 14  2  0  0  0  0
 16 15  1  0  0  0  0
 16 11  2  0  0  0  0
 17  5  1  0  0  0  0
 18 17  1  0  0  0  0
M  END
>  <MODEL>
6

>  <REMARK>
 VINA RESULT:      -4.3      2.880      6.488
  Name = ox2_shuffle_esm0_ligand
  5 active torsions:
  status: ('A' for Active; 'I' for Inactive)
    1  A    between atoms: C_1  and  O_2
    2  A    between atoms: O_2  and  C_3
    3  A    between atoms: C_6  and  C_7
    4  A    between atoms: C_7  and  C_9
    5  A    between atoms: C_15  and  O_16
                            x       y       z     vdW  Elec       q    Type
                         _______ _______ _______ _____ _____    ______ ____

>  <TORSDO>
F 4

$$$$
ox2_shuffle_esm0_ligand
 OpenBabel10092621223D

 18 19  0  0  0  0  0  0  0  0999 V2000
   -3.3550   -7.3130    0.6970 C   0  0  0  0  0  0  0  0  0  0  0  0
   -2.4820   -6.2380    0.5930 C   0  0  0  0  0  3  0  0  0  0  0  0
   -1.1880   -6.4480    0.1870 C   0  0  0  0  0  3  0  0  0  0  0  0
   -0.7410   -7.7120   -0.1250 C   0  0  0  0  0  0  0  0  0  0  0  0
   -1.6090   -8.7870    0.0000 C   0  0  0  0  0  0  0  0  0  0  0  0
   -2.9150   -8.5790    0.4010 C   0  0  0  0  0  3  0  0  0  0  0  0
   -5.0220   -7.1890    2.4510 C   0  0  0  0  0  1  0  0  0  0  0  0
   -4.6460   -7.1600    1.0720 O   0  0  0  0  0  0  0  0  0  0  0  0
    0.6460   -7.9850   -0.5880 C   0  0  0  0  0  0  0  0  0  0  0  0
    1.4280   -8.3940    0.2340 O   0  0  0  0  0  0  0  0  0  0  0  0
    1.1220   -7.8610   -1.9790 C   0  0  0  0  0  0  0  0  0  0  0  0
    1.8440   -6.7250   -2.3430 C   0  0  0  0  0  3  0  0  0  0  0  0
    2.3270   -6.5790   -3.6240 C   0  0  0  0  0  3  0  0  0  0  0  0
    2.1000   -7.5540   -4.5730 C   0  0  0  0  0  3  0  0  0  0  0  0
    1.3960   -8.6880   -4.2180 C   0  0  0  0  0  3  0  0  0  0  0  0
    0.9230   -8.8350   -2.9260 C   0  0  0  0  0  3  0  0  0  0  0  0
   -1.1490  -10.0350   -0.2860 O   0  0  0  0  0  0  0  0  0  0  0  0
   -0.8890  -10.2660   -1.2140 H   0  0  0  0  0  0  0  0  0  0  0  0
  1  8  1  0  0  0  0
  2  1  1  0  0  0  0
  3  2  2  0  0  0  0
  4  5  2  0  0  0  0
  4  3  1  0  0  0  0
  5  6  1  0  0  0  0
  6  1  2  0  0  0  0
  8  7  1  0  0  0  0
  9  4  1  0  0  0  0
  9 10  2  0  0  0  0
 11  9  1  0  0  0  0
 12 11  1  0  0  0  0
 13 12  2  0  0  0  0
 14 15  2  0  0  0  0
 14 13  1  0  0  0  0
 15 16  1  0  0  0  0
 16 11  2  0  0  0  0
 17  5  1  0  0  0  0
 18 17  1  0  0  0  0
M  END
>  <MODEL>
7

>  <REMARK>
 VINA RESULT:      -4.1      6.092      9.670
  Name = ox2_shuffle_esm0_ligand
  5 active torsions:
  status: ('A' for Active; 'I' for Inactive)
    1  A    between atoms: C_1  and  O_2
    2  A    between atoms: O_2  and  C_3
    3  A    between atoms: C_6  and  C_7
    4  A    between atoms: C_7  and  C_9
    5  A    between atoms: C_15  and  O_16
                            x       y       z     vdW  Elec       q    Type
                         _______ _______ _______ _____ _____    ______ ____

>  <TORSDO>
F 4

$$$$
ox2_shuffle_esm0_ligand
 OpenBabel10092621223D

 18 19  0  0  0  0  0  0  0  0999 V2000
   -1.5550   -6.2080    2.6460 C   0  0  0  0  0  0  0  0  0  0  0  0
   -2.2770   -5.1120    2.1900 C   0  0  0  0  0  3  0  0  0  0  0  0
   -3.4430   -4.7550    2.8210 C   0  0  0  0  0  3  0  0  0  0  0  0
   -3.9070   -5.4650    3.9040 C   0  0  0  0  0  0  0  0  0  0  0  0
   -3.1950   -6.5720    4.3450 C   0  0  0  0  0  0  0  0  0  0  0  0
   -2.0170   -6.9300    3.7180 C   0  0  0  0  0  3  0  0  0  0  0  0
    0.0410   -7.9540    2.1200 C   0  0  0  0  0  1  0  0  0  0  0  0
   -0.3890   -6.5910    2.0760 O   0  0  0  0  0  0  0  0  0  0  0  0
   -5.1550   -5.1040    4.6310 C   0  0  0  0  0  0  0  0  0  0  0  0
   -6.1310   -5.7770    4.4120 O   0  0  0  0  0  0  0  0  0  0  0  0
   -5.2750   -4.0350    5.6410 C   0  0  0  0  0  0  0  0  0  0  0  0
   -5.9950   -2.8850    5.3200 C   0  0  0  0  0  3  0  0  0  0  0  0
   -6.1520   -1.8740    6.2410 C   0  0  0  0  0  3  0  0  0  0  0  0
   -5.5940   -1.9800    7.4990 C   0  0  0  0  0  3  0  0  0  0  0  0
   -4.8890   -3.1200    7.8290 C   0  0  0  0  0  3  0  0  0  0  0  0
   -4.7440   -4.1390    6.9040 C   0  0  0  0  0  3  0  0  0  0  0  0
   -3.6770   -7.2810    5.4010 O   0  0  0  0  0  0  0  0  0  0  0  0
   -4.6470   -7.2660    5.6060 H   0  0  0  0  0  0  0  0  0  0  0  0
  1  6  1  0  0  0  0
  2  1  2  0  0  0  0
  2  3  1  0  0  0  0
  3  4  2  0  0  0  0
  4  5  1  0  0  0  0
  4  9  1  0  0  0  0
  5 17  1  0  0  0  0
  6  5  2  0  0  0  0
  8  7  1  0  0  0  0
  8  1  1  0  0  0  0
  9 11  1  0  0  0  0
 10  9  2  0  0  0  0
 11 16  1  0  0  0  0
 12 11  2  0  0  0  0
 12 13  1  0  0  0  0
 13 14  2  0  0  0  0
 14 15  1  0  0  0  0
 16 15  2  0  0  0  0
 17 18  1  0  0  0  0
M  END
>  <MODEL>
8

>  <REMARK>
 VINA RESULT:      -4.0     11.889     14.307
  Name = ox2_shuffle_esm0_ligand
  5 active torsions:
  status: ('A' for Active; 'I' for Inactive)
    1  A    between atoms: C_1  and  O_2
    2  A    between atoms: O_2  and  C_3
    3  A    between atoms: C_6  and  C_7
    4  A    between atoms: C_7  and  C_9
    5  A    between atoms: C_15  and  O_16
                            x       y       z     vdW  Elec       q    Type
                         _______ _______ _______ _____ _____    ______ ____

>  <TORSDO>
F 4

$$$$
ox2_shuffle_esm0_ligand
 OpenBabel10092621223D

 18 19  0  0  0  0  0  0  0  0999 V2000
    7.9080  -10.4020   -2.9070 C   0  0  0  0  0  0  0  0  0  0  0  0
    6.8380  -10.9790   -2.2350 C   0  0  0  0  0  3  0  0  0  0  0  0
    5.5530  -10.6820   -2.6160 C   0  0  0  0  0  3  0  0  0  0  0  0
    5.3070   -9.8220   -3.6610 C   0  0  0  0  0  0  0  0  0  0  0  0
    6.3770   -9.2290   -4.3170 C   0  0  0  0  0  0  0  0  0  0  0  0
    7.6710   -9.5310   -3.9410 C   0  0  0  0  0  3  0  0  0  0  0  0
    9.9760   -9.7530   -1.8250 C   0  0  0  0  0  1  0  0  0  0  0  0
    9.1930  -10.6750   -2.5870 O   0  0  0  0  0  0  0  0  0  0  0  0
    3.9330   -9.4850   -4.1220 C   0  0  0  0  0  0  0  0  0  0  0  0
    3.5650   -9.9800   -5.1580 O   0  0  0  0  0  0  0  0  0  0  0  0
    2.9660   -8.6500   -3.3840 C   0  0  0  0  0  0  0  0  0  0  0  0
    2.2530   -9.2200   -2.3300 C   0  0  0  0  0  3  0  0  0  0  0  0
    1.3590   -8.4710   -1.6000 C   0  0  0  0  0  3  0  0  0  0  0  0
    1.1490   -7.1400   -1.9010 C   0  0  0  0  0  3  0  0  0  0  0  0
    1.8600   -6.5640   -2.9350 C   0  0  0  0  0  3  0  0  0  0  0  0
    2.7670   -7.3190   -3.6580 C   0  0  0  0  0  3  0  0  0  0  0  0
    6.1200   -8.3600   -5.3320 O   0  0  0  0  0  0  0  0  0  0  0  0
    6.2060   -8.6580   -6.2730 H   0  0  0  0  0  0  0  0  0  0  0  0
  1  8  1  0  0  0  0
  1  2  1  0  0  0  0
  3  2  2  0  0  0  0
  4  3  1  0  0  0  0
  5  6  1  0  0  0  0
  5  4  2  0  0  0  0
  6  1  2  0  0  0  0
  8  7  1  0  0  0  0
  9  4  1  0  0  0  0
  9 11  1  0  0  0  0
 10  9  2  0  0  0  0
 11 12  1  0  0  0  0
 12 13  2  0  0  0  0
 14 13  1  0  0  0  0
 15 14  2  0  0  0  0
 16 11  2  0  0  0  0
 16 15  1  0  0  0  0
 17  5  1  0  0  0  0
 18 17  1  0  0  0  0
M  END
>  <MODEL>
9

>  <REMARK>
 VINA RESULT:      -4.0      1.664      2.705
  Name = ox2_shuffle_esm0_ligand
  5 active torsions:
  status: ('A' for Active; 'I' for Inactive)
    1  A    between atoms: C_1  and  O_2
    2  A    between atoms: O_2  and  C_3
    3  A    between atoms: C_6  and  C_7
    4  A    between atoms: C_7  and  C_9
    5  A    between atoms: C_15  and  O_16
                            x       y       z     vdW  Elec       q    Type
                         _______ _______ _______ _____ _____    ______ ____

>  <TORSDO>
F 4

$$$$
