bgox31_4_dockpose6
     RDKit          3D

 17 18  0  0  0  0  0  0  0  0999 V2000
   -9.8250    2.3580   -1.1220 C   0  0  0  0  0  0  0  0  0  0  0  0
  -10.3010    1.1350   -1.7460 O   0  0  0  0  0  0  0  0  0  0  0  0
   -9.3450    0.1750   -1.9630 C   0  0  0  0  0  0  0  0  0  0  0  0
   -9.4580   -1.0230   -1.3110 C   0  0  0  0  0  0  0  0  0  0  0  0
   -8.4640   -2.0550   -1.4760 C   0  0  0  0  0  0  0  0  0  0  0  0
   -7.4210   -1.7920   -2.3750 C   0  0  0  0  0  0  0  0  0  0  0  0
   -6.4310   -2.8670   -2.5620 C   0  0  0  0  0  0  0  0  0  0  0  0
   -6.5280   -3.5490   -3.6360 O   0  0  0  0  0  0  0  0  0  0  0  0
   -5.2300   -3.0410   -1.7420 C   0  0  0  0  0  0  0  0  0  0  0  0
   -5.4140   -3.5520   -0.4510 C   0  0  0  0  0  0  0  0  0  0  0  0
   -4.2990   -3.6530    0.4100 C   0  0  0  0  0  0  0  0  0  0  0  0
   -3.0940   -3.1670    0.0120 C   0  0  0  0  0  0  0  0  0  0  0  0
   -2.9020   -2.6010   -1.2370 C   0  0  0  0  0  0  0  0  0  0  0  0
   -3.9870   -2.5020   -2.1320 C   0  0  0  0  0  0  0  0  0  0  0  0
   -7.3190   -0.5600   -3.0090 C   0  0  0  0  0  0  0  0  0  0  0  0
   -6.2340   -0.3560   -3.8780 O   0  0  0  0  0  0  0  0  0  0  0  0
   -8.2830    0.4490   -2.8280 C   0  0  0  0  0  0  0  0  0  0  0  0
  2  1  1  0
  3  2  1  0
  4  3  1  0
  5  4  2  0
  6  5  1  0
  7  6  1  0
  8  7  2  0
  9  7  1  0
 10  9  2  0
 11 10  1  0
 12 11  2  0
 13 12  1  0
 14 13  2  0
 14  9  1  0
 15  6  2  0
 16 15  1  0
 17 15  1  0
 17  3  2  0
M  END
