s3_orig_f12_ligand
     RDKit          3D

 44 44  0  0  0  0  0  0  0  0999 V2000
   -7.5240   -4.4420    4.2970 C   0  0  1  0  0  0  0  0  0  0  0  0
   -7.8180   -3.5170    3.1360 C   0  0  1  0  0  0  0  0  0  0  0  0
   -6.5720   -3.1960    2.3510 C   0  0  1  0  0  0  0  0  0  0  0  0
   -6.8400   -2.3090    1.1800 C   0  0  1  0  0  0  0  0  0  0  0  0
   -5.6820   -1.4080    0.7810 C   0  0  2  0  0  0  0  0  0  0  0  0
   -5.9070   -0.8600   -0.6160 C   0  0  1  0  0  0  0  0  0  0  0  0
   -7.2600   -0.1840   -0.8080 C   0  0  1  0  0  0  0  0  0  0  0  0
   -4.5270   -2.0420    0.8410 O   0  0  0  0  0  0  0  0  0  0  0  0
   -3.5670   -2.7930    0.6200 C   0  0  0  0  0  0  0  0  0  0  0  0
   -3.6080   -3.5010   -0.3530 O   0  0  0  0  0  0  0  0  0  0  0  0
   -2.4560   -2.7870    1.6000 C   0  0  0  0  0  0  0  0  0  0  0  0
   -1.3970   -3.5820    1.4700 C   0  0  0  0  0  0  0  0  0  0  0  0
   -0.3030   -3.6910    2.4680 C   0  0  0  0  0  0  0  0  0  0  0  0
    0.5770   -4.7580    2.3950 C   0  0  0  0  0  0  0  0  0  0  0  0
    1.5600   -4.9300    3.3630 C   0  0  0  0  0  0  0  0  0  0  0  0
    1.7180   -4.0100    4.3790 C   0  0  0  0  0  0  0  0  0  0  0  0
    2.6900   -4.1310    5.3510 O   0  0  0  0  0  0  0  0  0  0  0  0
    3.0940   -5.4370    5.7180 C   0  0  1  0  0  0  0  0  0  0  0  0
    0.8790   -2.9280    4.4170 C   0  0  0  0  0  0  0  0  0  0  0  0
   -0.1290   -2.7680    3.4670 C   0  0  0  0  0  0  0  0  0  0  0  0
   -7.6938   -3.9078    5.2435 H   0  0  0  0  0  0  0  0  0  0  0  0
   -8.1882   -5.3173    4.2457 H   0  0  0  0  0  0  0  0  0  0  0  0
   -6.4763   -4.7732    4.2457 H   0  0  0  0  0  0  0  0  0  0  0  0
   -8.5450   -4.0025    2.4684 H   0  0  0  0  0  0  0  0  0  0  0  0
   -8.2212   -2.5766    3.5398 H   0  0  0  0  0  0  0  0  0  0  0  0
   -5.8565   -2.6921    3.0174 H   0  0  0  0  0  0  0  0  0  0  0  0
   -6.1701   -4.1440    1.9641 H   0  0  0  0  0  0  0  0  0  0  0  0
   -7.0896   -2.9462    0.3188 H   0  0  0  0  0  0  0  0  0  0  0  0
   -7.6610   -1.6414    1.4803 H   0  0  0  0  0  0  0  0  0  0  0  0
   -5.6420   -0.5747    1.4980 H   0  0  0  0  0  0  0  0  0  0  0  0
   -5.1189   -0.1228   -0.8291 H   0  0  0  0  0  0  0  0  0  0  0  0
   -5.8810   -1.7193   -1.3023 H   0  0  0  0  0  0  0  0  0  0  0  0
   -7.7022    0.0369    0.1747 H   0  0  0  0  0  0  0  0  0  0  0  0
   -7.1256    0.7528   -1.3686 H   0  0  0  0  0  0  0  0  0  0  0  0
   -7.9284   -0.8541   -1.3686 H   0  0  0  0  0  0  0  0  0  0  0  0
   -2.5081   -2.1046    2.4612 H   0  0  0  0  0  0  0  0  0  0  0  0
   -1.3273   -4.1998    0.5625 H   0  0  0  0  0  0  0  0  0  0  0  0
    0.4975   -5.4750    1.5646 H   0  0  0  0  0  0  0  0  0  0  0  0
    2.2192   -5.8095    3.3184 H   0  0  0  0  0  0  0  0  0  0  0  0
    3.1192   -5.5184    6.8147 H   0  0  0  0  0  0  0  0  0  0  0  0
    2.3804   -6.1692    5.3123 H   0  0  0  0  0  0  0  0  0  0  0  0
    4.0964   -5.6383    5.3123 H   0  0  0  0  0  0  0  0  0  0  0  0
    1.0022   -2.1742    5.2086 H   0  0  0  0  0  0  0  0  0  0  0  0
   -0.7919   -1.8917    3.5195 H   0  0  0  0  0  0  0  0  0  0  0  0
  2  1  1  0
  3  2  1  0
  4  3  1  0
  5  4  1  0
  6  5  1  0
  7  6  1  0
  8  5  1  0
  9  8  1  0
 10  9  2  0
 11  9  1  0
 12 11  2  3
 13 12  1  0
 14 13  1  0
 15 14  2  0
 16 15  1  0
 17 16  1  0
 18 17  1  0
 19 16  2  0
 20 19  1  0
 20 13  2  0
  1 21  1  1
  1 22  1  0
  1 23  1  0
  2 24  1  6
  2 25  1  0
  3 26  1  1
  3 27  1  0
  4 28  1  6
  4 29  1  0
  5 30  1  1
  6 31  1  6
  6 32  1  0
  7 33  1  1
  7 34  1  0
  7 35  1  0
 11 36  1  0
 12 37  1  0
 14 38  1  0
 15 39  1  0
 18 40  1  1
 18 41  1  0
 18 42  1  0
 19 43  1  0
 20 44  1  0
M  END
