bgox31_2_pose0_reference


 18 19  0  0  0  0  0  0  0  0999 V2000
   -8.9610    0.8400    1.2180 C   0  0  0  0  0  0  0  0  0  0  0  0
   -9.0240    2.0460    0.5140 C   0  0  0  0  0  0  0  0  0  0  0  0
   -8.2140    3.0950    0.8690 C   0  0  0  0  0  0  0  0  0  0  0  0
   -7.3480    2.9250    1.9140 C   0  0  0  0  0  0  0  0  0  0  0  0
   -7.2450    1.7190    2.5870 C   0  0  0  0  0  0  0  0  0  0  0  0
   -6.3260    1.6050    3.5580 O   0  0  0  0  0  0  0  0  0  0  0  0
   -8.0510    0.6840    2.2220 C   0  0  0  0  0  0  0  0  0  0  0  0
   -5.7884    2.3388    3.7828 H   0  0  0  0  0  0  0  0  0  0  0  0
  -10.0400   -1.1390    1.8430 C   0  0  0  0  0  0  0  0  0  0  0  0
   -9.7960   -0.1490    0.8750 O   0  0  0  0  0  0  0  0  0  0  0  0
   -6.4940    4.0960    2.3070 C   0  0  0  0  0  0  0  0  0  0  0  0
   -5.3840    3.8730    2.7040 O   0  0  0  0  0  0  0  0  0  0  0  0
   -6.9190    5.4510    2.1100 C   0  0  0  0  0  0  0  0  0  0  0  0
   -5.9320    6.4010    1.9850 C   0  0  0  0  0  0  0  0  0  0  0  0
   -6.3030    7.7210    1.8590 C   0  0  0  0  0  0  0  0  0  0  0  0
   -7.6390    8.0420    1.8460 C   0  0  0  0  0  0  0  0  0  0  0  0
   -8.5750    7.1340    1.9830 C   0  0  0  0  0  0  0  0  0  0  0  0
   -8.2080    5.8100    2.1000 C   0  0  0  0  0  0  0  0  0  0  0  0
 10  9  1  0
  1 10  1  0
  2  1  1  0
  3  2  2  0
  4  3  1  0
 11  4  1  0
 12 11  2  0
 13 11  1  0
 14 13  2  0
 15 14  1  0
 16 15  2  0
 17 16  1  0
 18 17  2  0
 18 13  1  0
  5  4  2  0
  6  5  1  0
  7  5  1  0
  7  1  2  0
  6  8  1  0
M  END
> <structure>
bgox31_2

> <pose>
0

> <is_reference>
1

> <rmsd_to_reference_A>
0.000

> <vina_score>


> <minimizedAffinity>
-2.02411

> <CNNscore>
0.7673511505

> <CNNaffinity>
3.9482953548

> <CNN_VS>
3.0297288895

> <CNNaffinity_variance>
0.2846946418

$$$$
bgox31_2_pose1


 18 19  0  0  0  0  0  0  0  0999 V2000
   -6.6780    2.8640    1.3030 C   0  0  0  0  0  0  0  0  0  0  0  0
   -7.4900    3.6120    0.4460 C   0  0  0  0  0  0  0  0  0  0  0  0
   -8.5960    3.0400   -0.1310 C   0  0  0  0  0  0  0  0  0  0  0  0
   -8.8810    1.7350    0.1610 C   0  0  0  0  0  0  0  0  0  0  0  0
   -8.1100    1.0000    1.0460 C   0  0  0  0  0  0  0  0  0  0  0  0
   -8.4900   -0.2540    1.3360 O   0  0  0  0  0  0  0  0  0  0  0  0
   -7.0180    1.5800    1.6150 C   0  0  0  0  0  0  0  0  0  0  0  0
   -9.2477   -0.6209    0.9247 H   0  0  0  0  0  0  0  0  0  0  0  0
   -5.5190    4.8410    1.7680 C   0  0  0  0  0  0  0  0  0  0  0  0
   -5.5820    3.4380    1.8150 O   0  0  0  0  0  0  0  0  0  0  0  0
  -10.0770    1.1190   -0.5060 C   0  0  0  0  0  0  0  0  0  0  0  0
  -11.0910    1.0310    0.1290 O   0  0  0  0  0  0  0  0  0  0  0  0
  -10.0730    0.7510   -1.8920 C   0  0  0  0  0  0  0  0  0  0  0  0
   -9.4180   -0.4120   -2.2260 C   0  0  0  0  0  0  0  0  0  0  0  0
   -9.3380   -0.7630   -3.5550 C   0  0  0  0  0  0  0  0  0  0  0  0
   -9.9270    0.0460   -4.4960 C   0  0  0  0  0  0  0  0  0  0  0  0
  -10.5350    1.1620   -4.1740 C   0  0  0  0  0  0  0  0  0  0  0  0
  -10.6250    1.5130   -2.8440 C   0  0  0  0  0  0  0  0  0  0  0  0
 10  9  1  0
  1 10  1  0
  2  1  1  0
  3  2  2  0
  4  3  1  0
 11  4  1  0
 12 11  2  0
 13 11  1  0
 14 13  2  0
 15 14  1  0
 16 15  2  0
 17 16  1  0
 18 17  2  0
 18 13  1  0
  5  4  2  0
  6  5  1  0
  7  5  1  0
  7  1  2  0
  6  8  1  0
M  END
> <structure>
bgox31_2

> <pose>
1

> <is_reference>
0

> <rmsd_to_reference_A>
6.306

> <vina_score>
-4.1

> <minimizedAffinity>
-4.17387

> <CNNscore>
0.8823757172

> <CNNaffinity>
4.2777810097

> <CNN_VS>
3.7746100426

> <CNNaffinity_variance>
0.4062840641

$$$$
bgox31_2_pose2


 18 19  0  0  0  0  0  0  0  0999 V2000
   -6.4560    3.0680    1.4490 C   0  0  0  0  0  0  0  0  0  0  0  0
   -5.6120    4.0340    2.0040 C   0  0  0  0  0  0  0  0  0  0  0  0
   -5.0060    3.8070    3.2130 C   0  0  0  0  0  0  0  0  0  0  0  0
   -5.2430    2.6200    3.8490 C   0  0  0  0  0  0  0  0  0  0  0  0
   -6.0410    1.6380    3.2860 C   0  0  0  0  0  0  0  0  0  0  0  0
   -6.1740    0.4720    3.9360 O   0  0  0  0  0  0  0  0  0  0  0  0
   -6.6330    1.8720    2.0830 C   0  0  0  0  0  0  0  0  0  0  0  0
   -5.7519    0.3458    4.7630 H   0  0  0  0  0  0  0  0  0  0  0  0
   -8.2020    4.1650    0.3460 C   0  0  0  0  0  0  0  0  0  0  0  0
   -7.0670    3.3380    0.2890 O   0  0  0  0  0  0  0  0  0  0  0  0
   -4.5960    2.4060    5.1870 C   0  0  0  0  0  0  0  0  0  0  0  0
   -5.2830    2.5060    6.1660 O   0  0  0  0  0  0  0  0  0  0  0  0
   -3.2340    1.9760    5.3170 C   0  0  0  0  0  0  0  0  0  0  0  0
   -2.3030    2.9400    5.6250 C   0  0  0  0  0  0  0  0  0  0  0  0
   -0.9780    2.5750    5.6940 C   0  0  0  0  0  0  0  0  0  0  0  0
   -0.6320    1.2640    5.4700 C   0  0  0  0  0  0  0  0  0  0  0  0
   -1.5220    0.3530    5.1600 C   0  0  0  0  0  0  0  0  0  0  0  0
   -2.8520    0.7120    5.0990 C   0  0  0  0  0  0  0  0  0  0  0  0
 10  9  1  0
  1 10  1  0
  2  1  1  0
  3  2  2  0
  4  3  1  0
 11  4  1  0
 12 11  2  0
 13 11  1  0
 14 13  2  0
 15 14  1  0
 16 15  2  0
 17 16  1  0
 18 17  2  0
 18 13  1  0
  5  4  2  0
  6  5  1  0
  7  5  1  0
  7  1  2  0
  6  8  1  0
M  END
> <structure>
bgox31_2

> <pose>
2

> <is_reference>
0

> <rmsd_to_reference_A>
5.762

> <vina_score>
-3.9

> <minimizedAffinity>
-3.99484

> <CNNscore>
0.6712858677

> <CNNaffinity>
3.5187692642

> <CNN_VS>
2.3621001244

> <CNNaffinity_variance>
0.1855867654

$$$$
bgox31_2_pose3


 18 19  0  0  0  0  0  0  0  0999 V2000
  -11.0660    1.2630   -4.2300 C   0  0  0  0  0  0  0  0  0  0  0  0
   -9.8860    0.6370   -3.8170 C   0  0  0  0  0  0  0  0  0  0  0  0
   -9.5630    0.5830   -2.4850 C   0  0  0  0  0  0  0  0  0  0  0  0
  -10.4230    1.1470   -1.5830 C   0  0  0  0  0  0  0  0  0  0  0  0
  -11.6170    1.7280   -1.9780 C   0  0  0  0  0  0  0  0  0  0  0  0
  -12.4420    2.2010   -1.0310 O   0  0  0  0  0  0  0  0  0  0  0  0
  -11.9280    1.7700   -3.3030 C   0  0  0  0  0  0  0  0  0  0  0  0
  -12.1944    2.1552   -0.1285 H   0  0  0  0  0  0  0  0  0  0  0  0
  -12.4800    2.0520   -5.9180 C   0  0  0  0  0  0  0  0  0  0  0  0
  -11.3300    1.3370   -5.5400 O   0  0  0  0  0  0  0  0  0  0  0  0
  -10.0350    1.1070   -0.1330 C   0  0  0  0  0  0  0  0  0  0  0  0
  -10.6800    0.4100    0.6020 O   0  0  0  0  0  0  0  0  0  0  0  0
   -8.8650    1.7700    0.3630 C   0  0  0  0  0  0  0  0  0  0  0  0
   -8.7020    3.0900    0.0120 C   0  0  0  0  0  0  0  0  0  0  0  0
   -7.5580    3.7410    0.4170 C   0  0  0  0  0  0  0  0  0  0  0  0
   -6.6300    3.0590    1.1670 C   0  0  0  0  0  0  0  0  0  0  0  0
   -6.7820    1.7960    1.4830 C   0  0  0  0  0  0  0  0  0  0  0  0
   -7.9310    1.1430    1.0880 C   0  0  0  0  0  0  0  0  0  0  0  0
 10  9  1  0
  1 10  1  0
  2  1  1  0
  3  2  2  0
  4  3  1  0
 11  4  1  0
 12 11  2  0
 13 11  1  0
 14 13  2  0
 15 14  1  0
 16 15  2  0
 17 16  1  0
 18 17  2  0
 18 13  1  0
  5  4  2  0
  6  5  1  0
  7  5  1  0
  7  1  2  0
  6  8  1  0
M  END
> <structure>
bgox31_2

> <pose>
3

> <is_reference>
0

> <rmsd_to_reference_A>
5.847

> <vina_score>
-3.9

> <minimizedAffinity>
-3.92159

> <CNNscore>
0.7631821036

> <CNNaffinity>
3.9671103954

> <CNN_VS>
3.0276277065

> <CNNaffinity_variance>
0.0111450283

$$$$
bgox31_2_pose4


 18 19  0  0  0  0  0  0  0  0999 V2000
   -3.8710   -4.2110   -2.9240 C   0  0  0  0  0  0  0  0  0  0  0  0
   -3.0250   -3.1210   -3.1470 C   0  0  0  0  0  0  0  0  0  0  0  0
   -3.2790   -2.2490   -4.1750 C   0  0  0  0  0  0  0  0  0  0  0  0
   -4.3760   -2.4710   -4.9620 C   0  0  0  0  0  0  0  0  0  0  0  0
   -5.2470   -3.5200   -4.7200 C   0  0  0  0  0  0  0  0  0  0  0  0
   -6.3390   -3.6360   -5.4910 O   0  0  0  0  0  0  0  0  0  0  0  0
   -4.9860   -4.3760   -3.6930 C   0  0  0  0  0  0  0  0  0  0  0  0
   -6.4863   -3.0286   -6.1891 H   0  0  0  0  0  0  0  0  0  0  0  0
   -3.7160   -4.5980   -0.6230 C   0  0  0  0  0  0  0  0  0  0  0  0
   -3.5710   -5.0670   -1.9400 O   0  0  0  0  0  0  0  0  0  0  0  0
   -4.6180   -1.5240   -6.1020 C   0  0  0  0  0  0  0  0  0  0  0  0
   -5.5680   -0.7940   -6.0340 O   0  0  0  0  0  0  0  0  0  0  0  0
   -3.6940   -1.3880   -7.1900 C   0  0  0  0  0  0  0  0  0  0  0  0
   -2.8130   -2.4250   -7.3920 C   0  0  0  0  0  0  0  0  0  0  0  0
   -1.8700   -2.3000   -8.3870 C   0  0  0  0  0  0  0  0  0  0  0  0
   -1.8500   -1.1590   -9.1510 C   0  0  0  0  0  0  0  0  0  0  0  0
   -2.6810   -0.1660   -8.9420 C   0  0  0  0  0  0  0  0  0  0  0  0
   -3.6330   -0.2900   -7.9530 C   0  0  0  0  0  0  0  0  0  0  0  0
 10  9  1  0
  1 10  1  0
  2  1  1  0
  3  2  2  0
  4  3  1  0
 11  4  1  0
 12 11  2  0
 13 11  1  0
 14 13  2  0
 15 14  1  0
 16 15  2  0
 17 16  1  0
 18 17  2  0
 18 13  1  0
  5  4  2  0
  6  5  1  0
  7  5  1  0
  7  1  2  0
  6  8  1  0
M  END
> <structure>
bgox31_2

> <pose>
4

> <is_reference>
0

> <rmsd_to_reference_A>
10.995

> <vina_score>
-3.8

> <minimizedAffinity>
-4.08353

> <CNNscore>
0.5105465055

> <CNNaffinity>
3.5544044971

> <CNN_VS>
1.8146888018

> <CNNaffinity_variance>
0.1110880151

$$$$
bgox31_2_pose5


 18 19  0  0  0  0  0  0  0  0999 V2000
   -9.8290    8.9390   -2.0050 C   0  0  0  0  0  0  0  0  0  0  0  0
   -8.8080    8.1680   -1.4420 C   0  0  0  0  0  0  0  0  0  0  0  0
   -7.5310    8.6640   -1.3660 C   0  0  0  0  0  0  0  0  0  0  0  0
   -7.2910    9.9230   -1.8440 C   0  0  0  0  0  0  0  0  0  0  0  0
   -8.3050   10.7120   -2.3600 C   0  0  0  0  0  0  0  0  0  0  0  0
   -8.0080   11.9620   -2.7480 O   0  0  0  0  0  0  0  0  0  0  0  0
   -9.5690   10.2110   -2.4260 C   0  0  0  0  0  0  0  0  0  0  0  0
   -7.1265   12.2740   -2.6886 H   0  0  0  0  0  0  0  0  0  0  0  0
  -12.0060    9.1430   -2.8350 C   0  0  0  0  0  0  0  0  0  0  0  0
  -11.0540    8.4090   -2.1050 O   0  0  0  0  0  0  0  0  0  0  0  0
   -5.8800   10.4330   -1.7810 C   0  0  0  0  0  0  0  0  0  0  0  0
   -5.6360   11.3120   -1.0010 O   0  0  0  0  0  0  0  0  0  0  0  0
   -4.8150    9.8290   -2.5260 C   0  0  0  0  0  0  0  0  0  0  0  0
   -5.0430    9.6020   -3.8640 C   0  0  0  0  0  0  0  0  0  0  0  0
   -4.0670    8.9640   -4.5970 C   0  0  0  0  0  0  0  0  0  0  0  0
   -2.8990    8.5930   -3.9760 C   0  0  0  0  0  0  0  0  0  0  0  0
   -2.6950    8.7960   -2.6960 C   0  0  0  0  0  0  0  0  0  0  0  0
   -3.6660    9.4430   -1.9610 C   0  0  0  0  0  0  0  0  0  0  0  0
 10  9  1  0
  1 10  1  0
  2  1  1  0
  3  2  2  0
  4  3  1  0
 11  4  1  0
 12 11  2  0
 13 11  1  0
 14 13  2  0
 15 14  1  0
 16 15  2  0
 17 16  1  0
 18 17  2  0
 18 13  1  0
  5  4  2  0
  6  5  1  0
  7  5  1  0
  7  1  2  0
  6  8  1  0
M  END
> <structure>
bgox31_2

> <pose>
5

> <is_reference>
0

> <rmsd_to_reference_A>
8.485

> <vina_score>
-3.8

> <minimizedAffinity>
-3.84709

> <CNNscore>
0.7489204407

> <CNNaffinity>
4.6273655891

> <CNN_VS>
3.4655287266

> <CNNaffinity_variance>
0.1079175100

$$$$
bgox31_2_pose6


 18 19  0  0  0  0  0  0  0  0999 V2000
   -7.8250    7.3940    0.6750 C   0  0  0  0  0  0  0  0  0  0  0  0
   -6.9270    8.4510    0.8410 C   0  0  0  0  0  0  0  0  0  0  0  0
   -6.7830    9.3950   -0.1440 C   0  0  0  0  0  0  0  0  0  0  0  0
   -7.5420    9.2770   -1.2760 C   0  0  0  0  0  0  0  0  0  0  0  0
   -8.4680    8.2590   -1.4300 C   0  0  0  0  0  0  0  0  0  0  0  0
   -9.2250    8.2450   -2.5380 O   0  0  0  0  0  0  0  0  0  0  0  0
   -8.6050    7.3310   -0.4430 C   0  0  0  0  0  0  0  0  0  0  0  0
   -9.1031    8.8999   -3.1970 H   0  0  0  0  0  0  0  0  0  0  0  0
   -7.2880    5.2290    1.3810 C   0  0  0  0  0  0  0  0  0  0  0  0
   -7.9090    6.4640    1.6350 O   0  0  0  0  0  0  0  0  0  0  0  0
   -7.3450   10.3020   -2.3550 C   0  0  0  0  0  0  0  0  0  0  0  0
   -8.2490   11.0570   -2.5840 O   0  0  0  0  0  0  0  0  0  0  0  0
   -6.0880   10.4770   -3.0230 C   0  0  0  0  0  0  0  0  0  0  0  0
   -5.5600    9.3750   -3.6540 C   0  0  0  0  0  0  0  0  0  0  0  0
   -4.3240    9.4890   -4.2500 C   0  0  0  0  0  0  0  0  0  0  0  0
   -3.6700   10.6970   -4.2090 C   0  0  0  0  0  0  0  0  0  0  0  0
   -4.1710   11.7390   -3.5910 C   0  0  0  0  0  0  0  0  0  0  0  0
   -5.4130   11.6320   -3.0010 C   0  0  0  0  0  0  0  0  0  0  0  0
 10  9  1  0
  1 10  1  0
  2  1  1  0
  3  2  2  0
  4  3  1  0
 11  4  1  0
 12 11  2  0
 13 11  1  0
 14 13  2  0
 15 14  1  0
 16 15  2  0
 17 16  1  0
 18 17  2  0
 18 13  1  0
  5  4  2  0
  6  5  1  0
  7  5  1  0
  7  1  2  0
  6  8  1  0
M  END
> <structure>
bgox31_2

> <pose>
6

> <is_reference>
0

> <rmsd_to_reference_A>
7.515

> <vina_score>
-3.8

> <minimizedAffinity>
-3.83171

> <CNNscore>
0.7675197124

> <CNNaffinity>
4.7577157021

> <CNN_VS>
3.6516406536

> <CNNaffinity_variance>
0.3437589407

$$$$
bgox31_2_pose7


 18 19  0  0  0  0  0  0  0  0999 V2000
   -8.9560   -1.8910   -3.9060 C   0  0  0  0  0  0  0  0  0  0  0  0
   -9.1520   -2.2130   -2.5600 C   0  0  0  0  0  0  0  0  0  0  0  0
   -9.5250   -1.2420   -1.6650 C   0  0  0  0  0  0  0  0  0  0  0  0
   -9.7040    0.0330   -2.1250 C   0  0  0  0  0  0  0  0  0  0  0  0
   -9.5580    0.3530   -3.4650 C   0  0  0  0  0  0  0  0  0  0  0  0
   -9.8160    1.6110   -3.8540 O   0  0  0  0  0  0  0  0  0  0  0  0
   -9.1930   -0.6210   -4.3440 C   0  0  0  0  0  0  0  0  0  0  0  0
  -10.0647    2.2555   -3.2209 H   0  0  0  0  0  0  0  0  0  0  0  0
   -7.3690   -3.5360   -4.4040 C   0  0  0  0  0  0  0  0  0  0  0  0
   -8.5500   -2.8520   -4.7450 O   0  0  0  0  0  0  0  0  0  0  0  0
  -10.0800    1.0870   -1.1240 C   0  0  0  0  0  0  0  0  0  0  0  0
  -11.2430    1.3540   -0.9990 O   0  0  0  0  0  0  0  0  0  0  0  0
   -9.1160    1.6840   -0.2460 C   0  0  0  0  0  0  0  0  0  0  0  0
   -8.8560    3.0230   -0.4250 C   0  0  0  0  0  0  0  0  0  0  0  0
   -7.8890    3.6140    0.3570 C   0  0  0  0  0  0  0  0  0  0  0  0
   -7.2330    2.8570    1.2970 C   0  0  0  0  0  0  0  0  0  0  0  0
   -7.4730    1.5770    1.4510 C   0  0  0  0  0  0  0  0  0  0  0  0
   -8.4470    0.9830    0.6760 C   0  0  0  0  0  0  0  0  0  0  0  0
 10  9  1  0
  1 10  1  0
  2  1  1  0
  3  2  2  0
  4  3  1  0
 11  4  1  0
 12 11  2  0
 13 11  1  0
 14 13  2  0
 15 14  1  0
 16 15  2  0
 17 16  1  0
 18 17  2  0
 18 13  1  0
  5  4  2  0
  6  5  1  0
  7  5  1  0
  7  1  2  0
  6  8  1  0
M  END
> <structure>
bgox31_2

> <pose>
7

> <is_reference>
0

> <rmsd_to_reference_A>
6.005

> <vina_score>
-3.8

> <minimizedAffinity>
-4.02922

> <CNNscore>
0.6240650415

> <CNNaffinity>
3.5065271854

> <CNN_VS>
2.1883010864

> <CNNaffinity_variance>
0.2664617300

$$$$
bgox31_2_pose8


 18 19  0  0  0  0  0  0  0  0999 V2000
  -11.1100   10.4620   -2.4580 C   0  0  0  0  0  0  0  0  0  0  0  0
  -10.3120   11.6060   -2.3670 C   0  0  0  0  0  0  0  0  0  0  0  0
   -8.9630   11.4890   -2.1450 C   0  0  0  0  0  0  0  0  0  0  0  0
   -8.4280   10.2360   -2.0260 C   0  0  0  0  0  0  0  0  0  0  0  0
   -9.2020    9.0960   -2.1620 C   0  0  0  0  0  0  0  0  0  0  0  0
   -8.5970    7.9000   -2.1000 O   0  0  0  0  0  0  0  0  0  0  0  0
  -10.5390    9.2250   -2.3870 C   0  0  0  0  0  0  0  0  0  0  0  0
   -7.6746    7.8491   -1.9434 H   0  0  0  0  0  0  0  0  0  0  0  0
  -12.9460   11.9110   -2.4870 C   0  0  0  0  0  0  0  0  0  0  0  0
  -12.4290   10.6110   -2.6310 O   0  0  0  0  0  0  0  0  0  0  0  0
   -6.9550   10.1320   -1.7510 C   0  0  0  0  0  0  0  0  0  0  0  0
   -6.6120    9.6970   -0.6870 O   0  0  0  0  0  0  0  0  0  0  0  0
   -5.9690   10.4190   -2.7520 C   0  0  0  0  0  0  0  0  0  0  0  0
   -5.5640    9.3710   -3.5450 C   0  0  0  0  0  0  0  0  0  0  0  0
   -4.5720    9.5960   -4.4740 C   0  0  0  0  0  0  0  0  0  0  0  0
   -4.0360   10.8560   -4.5880 C   0  0  0  0  0  0  0  0  0  0  0  0
   -4.4140   11.8470   -3.8170 C   0  0  0  0  0  0  0  0  0  0  0  0
   -5.4130   11.6280   -2.8930 C   0  0  0  0  0  0  0  0  0  0  0  0
 10  9  1  0
  1 10  1  0
  2  1  1  0
  3  2  2  0
  4  3  1  0
 11  4  1  0
 12 11  2  0
 13 11  1  0
 14 13  2  0
 15 14  1  0
 16 15  2  0
 17 16  1  0
 18 17  2  0
 18 13  1  0
  5  4  2  0
  6  5  1  0
  7  5  1  0
  7  1  2  0
  6  8  1  0
M  END
> <structure>
bgox31_2

> <pose>
8

> <is_reference>
0

> <rmsd_to_reference_A>
9.022

> <vina_score>
-3.7

> <minimizedAffinity>
-3.83535

> <CNNscore>
0.7164723277

> <CNNaffinity>
4.5121130943

> <CNN_VS>
3.2328040600

> <CNNaffinity_variance>
0.1523022801

$$$$
bgox31_2_pose9


 18 19  0  0  0  0  0  0  0  0999 V2000
   -6.0310    3.5120    1.6740 C   0  0  0  0  0  0  0  0  0  0  0  0
   -6.2050    2.1350    1.8460 C   0  0  0  0  0  0  0  0  0  0  0  0
   -7.3430    1.5210    1.3870 C   0  0  0  0  0  0  0  0  0  0  0  0
   -8.2870    2.2840    0.7580 C   0  0  0  0  0  0  0  0  0  0  0  0
   -8.1030    3.6400    0.5410 C   0  0  0  0  0  0  0  0  0  0  0  0
   -9.0420    4.3120   -0.1420 O   0  0  0  0  0  0  0  0  0  0  0  0
   -6.9670    4.2370    0.9970 C   0  0  0  0  0  0  0  0  0  0  0  0
   -9.8115    3.8685   -0.4406 H   0  0  0  0  0  0  0  0  0  0  0  0
   -4.7600    5.4600    1.9160 C   0  0  0  0  0  0  0  0  0  0  0  0
   -4.9300    4.0880    2.1730 O   0  0  0  0  0  0  0  0  0  0  0  0
   -9.5390    1.5980    0.2930 C   0  0  0  0  0  0  0  0  0  0  0  0
  -10.5740    1.9010    0.8190 O   0  0  0  0  0  0  0  0  0  0  0  0
   -9.5470    0.6980   -0.8230 C   0  0  0  0  0  0  0  0  0  0  0  0
   -9.6890    1.2560   -2.0720 C   0  0  0  0  0  0  0  0  0  0  0  0
   -9.7650    0.4170   -3.1620 C   0  0  0  0  0  0  0  0  0  0  0  0
   -9.6810   -0.9410   -2.9670 C   0  0  0  0  0  0  0  0  0  0  0  0
   -9.5630   -1.4680   -1.7720 C   0  0  0  0  0  0  0  0  0  0  0  0
   -9.4770   -0.6310   -0.6800 C   0  0  0  0  0  0  0  0  0  0  0  0
 10  9  1  0
  1 10  1  0
  2  1  1  0
  3  2  2  0
  4  3  1  0
 11  4  1  0
 12 11  2  0
 13 11  1  0
 14 13  2  0
 15 14  1  0
 16 15  2  0
 17 16  1  0
 18 17  2  0
 18 13  1  0
  5  4  2  0
  6  5  1  0
  7  5  1  0
  7  1  2  0
  6  8  1  0
M  END
> <structure>
bgox31_2

> <pose>
9

> <is_reference>
0

> <rmsd_to_reference_A>
6.354

> <vina_score>
-3.7

> <minimizedAffinity>
-3.80808

> <CNNscore>
0.7954609394

> <CNNaffinity>
3.7301177979

> <CNN_VS>
2.9671630859

> <CNNaffinity_variance>
0.0563350804

$$$$
