ox1_esm1_f8_pose0_reference


 18 19  0  0  0  0  0  0  0  0999 V2000
    2.8390   -0.2210   -3.1940 C   0  0  0  0  0  0  0  0  0  0  0  0
    2.8440   -1.4760   -2.5850 C   0  0  0  0  0  0  0  0  0  0  0  0
    3.6110   -1.6980   -1.4500 C   0  0  0  0  0  0  0  0  0  0  0  0
    4.3710   -0.6820   -0.8970 C   0  0  0  0  0  0  0  0  0  0  0  0
    4.3780    0.5880   -1.5100 C   0  0  0  0  0  0  0  0  0  0  0  0
    5.1410    1.5860   -0.9770 O   0  0  0  0  0  0  0  0  0  0  0  0
    3.6080    0.7970   -2.6530 C   0  0  0  0  0  0  0  0  0  0  0  0
    5.6517    1.4255   -0.2080 H   0  0  0  0  0  0  0  0  0  0  0  0
    2.0170    1.2080   -4.9840 C   0  0  0  0  0  0  0  0  0  0  0  0
    2.0620   -0.0490   -4.3020 O   0  0  0  0  0  0  0  0  0  0  0  0
    5.1840   -0.9270    0.3380 C   0  0  0  0  0  0  0  0  0  0  0  0
    5.9790   -0.0700    0.7150 O   0  0  0  0  0  0  0  0  0  0  0  0
    5.0570   -2.2060    1.0980 C   0  0  0  0  0  0  0  0  0  0  0  0
    6.1270   -2.9980    1.3070 C   0  0  0  0  0  0  0  0  0  0  0  0
    6.0920   -4.1760    2.0310 C   0  0  0  0  0  0  0  0  0  0  0  0
    4.8900   -4.6000    2.5440 C   0  0  0  0  0  0  0  0  0  0  0  0
    3.7600   -3.8210    2.3390 C   0  0  0  0  0  0  0  0  0  0  0  0
    3.8540   -2.6330    1.6140 C   0  0  0  0  0  0  0  0  0  0  0  0
 10  9  1  0
  1 10  1  0
  2  1  1  0
  3  2  2  0
  4  3  1  0
 11  4  1  0
 12 11  2  0
 13 11  1  0
 14 13  2  0
 15 14  1  0
 16 15  2  0
 17 16  1  0
 18 17  2  0
 18 13  1  0
  5  4  2  0
  6  5  1  0
  7  5  1  0
  7  1  2  0
  6  8  1  0
M  END
> <structure>
ox1_esm1_f8

> <pose>
0

> <is_reference>
1

> <rmsd_to_reference_A>
0.000

> <vina_score>


> <minimizedAffinity>
-4.08734

> <CNNscore>
0.6697232723

> <CNNaffinity>
4.3174133301

> <CNN_VS>
2.8914721012

> <CNNaffinity_variance>
0.0158439223

$$$$
ox1_esm1_f8_pose1


 18 19  0  0  0  0  0  0  0  0999 V2000
    4.1950   -2.2720    1.7930 C   0  0  0  0  0  0  0  0  0  0  0  0
    4.0290   -2.8900    0.5540 C   0  0  0  0  0  0  0  0  0  0  0  0
    4.1760   -2.1590   -0.6160 C   0  0  0  0  0  0  0  0  0  0  0  0
    4.4990   -0.8140   -0.5760 C   0  0  0  0  0  0  0  0  0  0  0  0
    4.6620   -0.1790    0.6720 C   0  0  0  0  0  0  0  0  0  0  0  0
    4.9630    1.1520    0.7140 O   0  0  0  0  0  0  0  0  0  0  0  0
    4.5060   -0.9230    1.8400 C   0  0  0  0  0  0  0  0  0  0  0  0
    5.0639    1.6349   -0.0826 H   0  0  0  0  0  0  0  0  0  0  0  0
    4.2070   -4.4560    2.8660 C   0  0  0  0  0  0  0  0  0  0  0  0
    4.0500   -3.0350    2.9150 O   0  0  0  0  0  0  0  0  0  0  0  0
    4.6710   -0.0360   -1.8460 C   0  0  0  0  0  0  0  0  0  0  0  0
    5.7440    0.5170   -2.0730 O   0  0  0  0  0  0  0  0  0  0  0  0
    3.5480    0.0960   -2.8220 C   0  0  0  0  0  0  0  0  0  0  0  0
    2.6100   -0.8640   -2.9330 C   0  0  0  0  0  0  0  0  0  0  0  0
    1.5240   -0.7940   -3.7880 C   0  0  0  0  0  0  0  0  0  0  0  0
    1.4010    0.3000   -4.6090 C   0  0  0  0  0  0  0  0  0  0  0  0
    2.3540    1.3060   -4.5360 C   0  0  0  0  0  0  0  0  0  0  0  0
    3.4210    1.1920   -3.6460 C   0  0  0  0  0  0  0  0  0  0  0  0
 10  9  1  0
  1 10  1  0
  2  1  1  0
  3  2  2  0
  4  3  1  0
 11  4  1  0
 12 11  2  0
 13 11  1  0
 14 13  2  0
 15 14  1  0
 16 15  2  0
 17 16  1  0
 18 17  2  0
 18 13  1  0
  5  4  2  0
  6  5  1  0
  7  5  1  0
  7  1  2  0
  6  8  1  0
M  END
> <structure>
ox1_esm1_f8

> <pose>
1

> <is_reference>
0

> <rmsd_to_reference_A>
5.838

> <vina_score>
-7.2

> <minimizedAffinity>
-7.36313

> <CNNscore>
0.8968518376

> <CNNaffinity>
4.8450903893

> <CNN_VS>
4.3453283310

> <CNNaffinity_variance>
0.2789763808

$$$$
ox1_esm1_f8_pose2


 18 19  0  0  0  0  0  0  0  0999 V2000
    3.6680   -5.9650   -0.2090 C   0  0  0  0  0  0  0  0  0  0  0  0
    2.9210   -5.1130   -1.0230 C   0  0  0  0  0  0  0  0  0  0  0  0
    3.0230   -3.7370   -0.8740 C   0  0  0  0  0  0  0  0  0  0  0  0
    3.8710   -3.1870    0.0720 C   0  0  0  0  0  0  0  0  0  0  0  0
    4.6250   -4.0400    0.9040 C   0  0  0  0  0  0  0  0  0  0  0  0
    5.4480   -3.5000    1.8490 O   0  0  0  0  0  0  0  0  0  0  0  0
    4.5090   -5.4210    0.7480 C   0  0  0  0  0  0  0  0  0  0  0  0
    5.5120   -2.5694    1.9380 H   0  0  0  0  0  0  0  0  0  0  0  0
    4.1810   -7.9630   -1.5000 C   0  0  0  0  0  0  0  0  0  0  0  0
    3.5410   -7.3100   -0.4000 O   0  0  0  0  0  0  0  0  0  0  0  0
    3.9870   -1.7000    0.2150 C   0  0  0  0  0  0  0  0  0  0  0  0
    3.6870   -1.1730    1.2840 O   0  0  0  0  0  0  0  0  0  0  0  0
    4.4360   -0.8520   -0.9290 C   0  0  0  0  0  0  0  0  0  0  0  0
    3.7650   -0.8500   -2.0970 C   0  0  0  0  0  0  0  0  0  0  0  0
    4.1010   -0.0650   -3.1850 C   0  0  0  0  0  0  0  0  0  0  0  0
    5.2100    0.7410   -3.1000 C   0  0  0  0  0  0  0  0  0  0  0  0
    5.9380    0.7590   -1.9190 C   0  0  0  0  0  0  0  0  0  0  0  0
    5.5470   -0.0420   -0.8460 C   0  0  0  0  0  0  0  0  0  0  0  0
 10  9  1  0
  1 10  1  0
  2  1  1  0
  3  2  2  0
  4  3  1  0
 11  4  1  0
 12 11  2  0
 13 11  1  0
 14 13  2  0
 15 14  1  0
 16 15  2  0
 17 16  1  0
 18 17  2  0
 18 13  1  0
  5  4  2  0
  6  5  1  0
  7  5  1  0
  7  1  2  0
  6  8  1  0
M  END
> <structure>
ox1_esm1_f8

> <pose>
2

> <is_reference>
0

> <rmsd_to_reference_A>
5.662

> <vina_score>
-6.8

> <minimizedAffinity>
-6.85766

> <CNNscore>
0.1958694309

> <CNNaffinity>
3.2842032909

> <CNN_VS>
0.6432750225

> <CNNaffinity_variance>
0.5943626761

$$$$
ox1_esm1_f8_pose3


 18 19  0  0  0  0  0  0  0  0999 V2000
    3.6670   -5.9460   -0.1960 C   0  0  0  0  0  0  0  0  0  0  0  0
    2.9120   -5.1000   -1.0090 C   0  0  0  0  0  0  0  0  0  0  0  0
    3.0130   -3.7230   -0.8670 C   0  0  0  0  0  0  0  0  0  0  0  0
    3.8680   -3.1670    0.0690 C   0  0  0  0  0  0  0  0  0  0  0  0
    4.6290   -4.0140    0.9000 C   0  0  0  0  0  0  0  0  0  0  0  0
    5.4590   -3.4680    1.8350 O   0  0  0  0  0  0  0  0  0  0  0  0
    4.5150   -5.3950    0.7510 C   0  0  0  0  0  0  0  0  0  0  0  0
    5.5215   -2.5369    1.9194 H   0  0  0  0  0  0  0  0  0  0  0  0
    4.3510   -7.9860   -1.3330 C   0  0  0  0  0  0  0  0  0  0  0  0
    3.5410   -7.2920   -0.3800 O   0  0  0  0  0  0  0  0  0  0  0  0
    3.9810   -1.6780    0.2040 C   0  0  0  0  0  0  0  0  0  0  0  0
    3.7090   -1.1490    1.2780 O   0  0  0  0  0  0  0  0  0  0  0  0
    4.3960   -0.8330   -0.9550 C   0  0  0  0  0  0  0  0  0  0  0  0
    5.4740   -0.0280   -0.8750 C   0  0  0  0  0  0  0  0  0  0  0  0
    5.9380    0.7540   -1.9180 C   0  0  0  0  0  0  0  0  0  0  0  0
    5.2450    0.7520   -3.1040 C   0  0  0  0  0  0  0  0  0  0  0  0
    4.1200   -0.0520   -3.2230 C   0  0  0  0  0  0  0  0  0  0  0  0
    3.7040   -0.8340   -2.1450 C   0  0  0  0  0  0  0  0  0  0  0  0
 10  9  1  0
  1 10  1  0
  2  1  1  0
  3  2  2  0
  4  3  1  0
 11  4  1  0
 12 11  2  0
 13 11  1  0
 14 13  2  0
 15 14  1  0
 16 15  2  0
 17 16  1  0
 18 17  2  0
 18 13  1  0
  5  4  2  0
  6  5  1  0
  7  5  1  0
  7  1  2  0
  6  8  1  0
M  END
> <structure>
ox1_esm1_f8

> <pose>
3

> <is_reference>
0

> <rmsd_to_reference_A>
5.674

> <vina_score>
-6.8

> <minimizedAffinity>
-6.85251

> <CNNscore>
0.1963324398

> <CNNaffinity>
3.2839305401

> <CNN_VS>
0.6447420716

> <CNNaffinity_variance>
0.5889851451

$$$$
ox1_esm1_f8_pose4


 18 19  0  0  0  0  0  0  0  0999 V2000
    5.9690    0.7780   -2.2210 C   0  0  0  0  0  0  0  0  0  0  0  0
    4.8590    0.0470   -2.6450 C   0  0  0  0  0  0  0  0  0  0  0  0
    4.2250   -0.8270   -1.7740 C   0  0  0  0  0  0  0  0  0  0  0  0
    4.6700   -0.9790   -0.4720 C   0  0  0  0  0  0  0  0  0  0  0  0
    5.7960   -0.2500   -0.0370 C   0  0  0  0  0  0  0  0  0  0  0  0
    6.2480   -0.4130    1.2400 O   0  0  0  0  0  0  0  0  0  0  0  0
    6.4280    0.6200   -0.9230 C   0  0  0  0  0  0  0  0  0  0  0  0
    5.8090   -1.0030    1.8206 H   0  0  0  0  0  0  0  0  0  0  0  0
    7.9600    1.5790   -3.3690 C   0  0  0  0  0  0  0  0  0  0  0  0
    6.5530    1.6310   -3.1120 O   0  0  0  0  0  0  0  0  0  0  0  0
    3.9690   -1.9140    0.4670 C   0  0  0  0  0  0  0  0  0  0  0  0
    3.4860   -1.4720    1.5060 O   0  0  0  0  0  0  0  0  0  0  0  0
    3.8720   -3.3730    0.1660 C   0  0  0  0  0  0  0  0  0  0  0  0
    3.0030   -3.8350   -0.7540 C   0  0  0  0  0  0  0  0  0  0  0  0
    2.8840   -5.1670   -1.1110 C   0  0  0  0  0  0  0  0  0  0  0  0
    3.6660   -6.0950   -0.4680 C   0  0  0  0  0  0  0  0  0  0  0  0
    4.5650   -5.6620    0.4980 C   0  0  0  0  0  0  0  0  0  0  0  0
    4.6560   -4.3050    0.8080 C   0  0  0  0  0  0  0  0  0  0  0  0
 10  9  1  0
  1 10  1  0
  2  1  1  0
  3  2  2  0
  4  3  1  0
 11  4  1  0
 12 11  2  0
 13 11  1  0
 14 13  2  0
 15 14  1  0
 16 15  2  0
 17 16  1  0
 18 17  2  0
 18 13  1  0
  5  4  2  0
  6  5  1  0
  7  5  1  0
  7  1  2  0
  6  8  1  0
M  END
> <structure>
ox1_esm1_f8

> <pose>
4

> <is_reference>
0

> <rmsd_to_reference_A>
3.155

> <vina_score>
-6.7

> <minimizedAffinity>
-6.67061

> <CNNscore>
0.2075324357

> <CNNaffinity>
3.4322178364

> <CNN_VS>
0.7122965455

> <CNNaffinity_variance>
0.5924103856

$$$$
ox1_esm1_f8_pose5


 18 19  0  0  0  0  0  0  0  0999 V2000
    3.1590   -4.6200    1.8780 C   0  0  0  0  0  0  0  0  0  0  0  0
    3.2710   -4.5800    0.4880 C   0  0  0  0  0  0  0  0  0  0  0  0
    3.8460   -3.4820   -0.1350 C   0  0  0  0  0  0  0  0  0  0  0  0
    4.3270   -2.4160    0.6070 C   0  0  0  0  0  0  0  0  0  0  0  0
    4.2110   -2.4440    2.0120 C   0  0  0  0  0  0  0  0  0  0  0  0
    4.6680   -1.3870    2.7430 O   0  0  0  0  0  0  0  0  0  0  0  0
    3.6260   -3.5510    2.6260 C   0  0  0  0  0  0  0  0  0  0  0  0
    5.0580   -0.6525    2.3113 H   0  0  0  0  0  0  0  0  0  0  0  0
    2.2800   -5.7590    3.8400 C   0  0  0  0  0  0  0  0  0  0  0  0
    2.5950   -5.7250    2.4450 O   0  0  0  0  0  0  0  0  0  0  0  0
    4.9600   -1.2410   -0.0740 C   0  0  0  0  0  0  0  0  0  0  0  0
    5.9310   -0.6960    0.4450 O   0  0  0  0  0  0  0  0  0  0  0  0
    4.4120   -0.7120   -1.3590 C   0  0  0  0  0  0  0  0  0  0  0  0
    3.2230   -1.1350   -1.8320 C   0  0  0  0  0  0  0  0  0  0  0  0
    2.6370   -0.6640   -2.9930 C   0  0  0  0  0  0  0  0  0  0  0  0
    3.3140    0.2660   -3.7430 C   0  0  0  0  0  0  0  0  0  0  0  0
    4.5480    0.7180   -3.2990 C   0  0  0  0  0  0  0  0  0  0  0  0
    5.0870    0.2210   -2.1120 C   0  0  0  0  0  0  0  0  0  0  0  0
 10  9  1  0
  1 10  1  0
  2  1  1  0
  3  2  2  0
  4  3  1  0
 11  4  1  0
 12 11  2  0
 13 11  1  0
 14 13  2  0
 15 14  1  0
 16 15  2  0
 17 16  1  0
 18 17  2  0
 18 13  1  0
  5  4  2  0
  6  5  1  0
  7  5  1  0
  7  1  2  0
  6  8  1  0
M  END
> <structure>
ox1_esm1_f8

> <pose>
5

> <is_reference>
0

> <rmsd_to_reference_A>
5.829

> <vina_score>
-6.7

> <minimizedAffinity>
-7.03310

> <CNNscore>
0.5620605350

> <CNNaffinity>
3.9269580841

> <CNN_VS>
2.2071881294

> <CNNaffinity_variance>
0.3503441513

$$$$
ox1_esm1_f8_pose6


 18 19  0  0  0  0  0  0  0  0999 V2000
    2.5770   -0.1460   -2.7240 C   0  0  0  0  0  0  0  0  0  0  0  0
    2.8970   -1.4990   -2.6090 C   0  0  0  0  0  0  0  0  0  0  0  0
    3.6500   -1.9490   -1.5340 C   0  0  0  0  0  0  0  0  0  0  0  0
    4.0860   -1.0730   -0.5550 C   0  0  0  0  0  0  0  0  0  0  0  0
    3.7740    0.2980   -0.6670 C   0  0  0  0  0  0  0  0  0  0  0  0
    4.2170    1.1670    0.2870 O   0  0  0  0  0  0  0  0  0  0  0  0
    3.0210    0.7390   -1.7540 C   0  0  0  0  0  0  0  0  0  0  0  0
    4.7220    0.8511    1.0103 H   0  0  0  0  0  0  0  0  0  0  0  0
    2.1710    1.4130   -4.5470 C   0  0  0  0  0  0  0  0  0  0  0  0
    1.8260    0.2470   -3.7930 O   0  0  0  0  0  0  0  0  0  0  0  0
    4.8860   -1.5710    0.6100 C   0  0  0  0  0  0  0  0  0  0  0  0
    5.8710   -0.9370    0.9790 O   0  0  0  0  0  0  0  0  0  0  0  0
    4.5150   -2.8370    1.3090 C   0  0  0  0  0  0  0  0  0  0  0  0
    3.5140   -2.8650    2.2100 C   0  0  0  0  0  0  0  0  0  0  0  0
    3.0920   -4.0060    2.8680 C   0  0  0  0  0  0  0  0  0  0  0  0
    3.7500   -5.1880    2.6280 C   0  0  0  0  0  0  0  0  0  0  0  0
    4.7970   -5.2000    1.7170 C   0  0  0  0  0  0  0  0  0  0  0  0
    5.1720   -4.0230    1.0690 C   0  0  0  0  0  0  0  0  0  0  0  0
 10  9  1  0
  1 10  1  0
  2  1  1  0
  3  2  2  0
  4  3  1  0
 11  4  1  0
 12 11  2  0
 13 11  1  0
 14 13  2  0
 15 14  1  0
 16 15  2  0
 17 16  1  0
 18 17  2  0
 18 13  1  0
  5  4  2  0
  6  5  1  0
  7  5  1  0
  7  1  2  0
  6  8  1  0
M  END
> <structure>
ox1_esm1_f8

> <pose>
6

> <is_reference>
0

> <rmsd_to_reference_A>
0.978

> <vina_score>
-6.7

> <minimizedAffinity>
-6.50443

> <CNNscore>
0.7661616206

> <CNNaffinity>
4.1707158089

> <CNN_VS>
3.1954424381

> <CNNaffinity_variance>
0.1068911776

$$$$
ox1_esm1_f8_pose7


 18 19  0  0  0  0  0  0  0  0999 V2000
    4.0610   -0.0680   -2.4640 C   0  0  0  0  0  0  0  0  0  0  0  0
    3.5190   -1.3200   -2.1720 C   0  0  0  0  0  0  0  0  0  0  0  0
    3.6260   -1.8440   -0.8910 C   0  0  0  0  0  0  0  0  0  0  0  0
    4.2560   -1.1340    0.1160 C   0  0  0  0  0  0  0  0  0  0  0  0
    4.8120    0.1290   -0.1720 C   0  0  0  0  0  0  0  0  0  0  0  0
    5.4500    0.8220    0.8160 O   0  0  0  0  0  0  0  0  0  0  0  0
    4.7040    0.6420   -1.4630 C   0  0  0  0  0  0  0  0  0  0  0  0
    5.5118    0.4594    1.6778 H   0  0  0  0  0  0  0  0  0  0  0  0
    2.6810    0.9600   -4.1860 C   0  0  0  0  0  0  0  0  0  0  0  0
    3.9230    0.4090   -3.7350 O   0  0  0  0  0  0  0  0  0  0  0  0
    4.3520   -1.7020    1.5000 C   0  0  0  0  0  0  0  0  0  0  0  0
    4.5200   -0.9430    2.4510 O   0  0  0  0  0  0  0  0  0  0  0  0
    4.2700   -3.1750    1.7320 C   0  0  0  0  0  0  0  0  0  0  0  0
    5.2520   -3.9980    1.3150 C   0  0  0  0  0  0  0  0  0  0  0  0
    5.2620   -5.3650    1.5260 C   0  0  0  0  0  0  0  0  0  0  0  0
    4.1920   -5.9420    2.1660 C   0  0  0  0  0  0  0  0  0  0  0  0
    3.1520   -5.1310    2.5990 C   0  0  0  0  0  0  0  0  0  0  0  0
    3.1990   -3.7550    2.3740 C   0  0  0  0  0  0  0  0  0  0  0  0
 10  9  1  0
  1 10  1  0
  2  1  1  0
  3  2  2  0
  4  3  1  0
 11  4  1  0
 12 11  2  0
 13 11  1  0
 14 13  2  0
 15 14  1  0
 16 15  2  0
 17 16  1  0
 18 17  2  0
 18 13  1  0
  5  4  2  0
  6  5  1  0
  7  5  1  0
  7  1  2  0
  6  8  1  0
M  END
> <structure>
ox1_esm1_f8

> <pose>
7

> <is_reference>
0

> <rmsd_to_reference_A>
1.527

> <vina_score>
-6.4

> <minimizedAffinity>
-6.45581

> <CNNscore>
0.5117732882

> <CNNaffinity>
3.7907161713

> <CNN_VS>
1.9399873018

> <CNNaffinity_variance>
0.2827047408

$$$$
ox1_esm1_f8_pose8


 18 19  0  0  0  0  0  0  0  0999 V2000
    4.5920   -0.5980   -1.3260 C   0  0  0  0  0  0  0  0  0  0  0  0
    3.6330   -1.3660   -1.9860 C   0  0  0  0  0  0  0  0  0  0  0  0
    3.1800   -2.5510   -1.4240 C   0  0  0  0  0  0  0  0  0  0  0  0
    3.6600   -2.9850   -0.2010 C   0  0  0  0  0  0  0  0  0  0  0  0
    4.6360   -2.2200    0.4700 C   0  0  0  0  0  0  0  0  0  0  0  0
    5.1230   -2.6560    1.6680 O   0  0  0  0  0  0  0  0  0  0  0  0
    5.0870   -1.0340   -0.1070 C   0  0  0  0  0  0  0  0  0  0  0  0
    4.8067   -3.4561    2.0391 H   0  0  0  0  0  0  0  0  0  0  0  0
    4.8300    0.7790   -3.3180 C   0  0  0  0  0  0  0  0  0  0  0  0
    4.9990    0.5640   -1.9140 O   0  0  0  0  0  0  0  0  0  0  0  0
    3.1530   -4.2590    0.4060 C   0  0  0  0  0  0  0  0  0  0  0  0
    3.2840   -4.4450    1.6130 O   0  0  0  0  0  0  0  0  0  0  0  0
    2.5160   -5.3110   -0.4410 C   0  0  0  0  0  0  0  0  0  0  0  0
    3.2430   -6.0300   -1.3190 C   0  0  0  0  0  0  0  0  0  0  0  0
    2.7290   -7.0420   -2.1080 C   0  0  0  0  0  0  0  0  0  0  0  0
    1.3850   -7.3190   -2.0340 C   0  0  0  0  0  0  0  0  0  0  0  0
    0.5970   -6.5920   -1.1530 C   0  0  0  0  0  0  0  0  0  0  0  0
    1.1700   -5.5910   -0.3680 C   0  0  0  0  0  0  0  0  0  0  0  0
 10  9  1  0
  1 10  1  0
  2  1  1  0
  3  2  2  0
  4  3  1  0
 11  4  1  0
 12 11  2  0
 13 11  1  0
 14 13  2  0
 15 14  1  0
 16 15  2  0
 17 16  1  0
 18 17  2  0
 18 13  1  0
  5  4  2  0
  6  5  1  0
  7  5  1  0
  7  1  2  0
  6  8  1  0
M  END
> <structure>
ox1_esm1_f8

> <pose>
8

> <is_reference>
0

> <rmsd_to_reference_A>
4.213

> <vina_score>
-6.2

> <minimizedAffinity>
-6.19672

> <CNNscore>
0.2725586593

> <CNNaffinity>
3.4515743256

> <CNN_VS>
0.9407564998

> <CNNaffinity_variance>
0.4352751970

$$$$
ox1_esm1_f8_pose9


 18 19  0  0  0  0  0  0  0  0999 V2000
    7.2780   -6.5680    1.7870 C   0  0  0  0  0  0  0  0  0  0  0  0
    6.6220   -6.7500    0.5690 C   0  0  0  0  0  0  0  0  0  0  0  0
    5.4790   -6.0200    0.2760 C   0  0  0  0  0  0  0  0  0  0  0  0
    4.9780   -5.0940    1.1750 C   0  0  0  0  0  0  0  0  0  0  0  0
    5.6310   -4.9090    2.4120 C   0  0  0  0  0  0  0  0  0  0  0  0
    5.1280   -4.0100    3.3070 O   0  0  0  0  0  0  0  0  0  0  0  0
    6.7750   -5.6530    2.6970 C   0  0  0  0  0  0  0  0  0  0  0  0
    4.3578   -3.5198    3.0961 H   0  0  0  0  0  0  0  0  0  0  0  0
    9.0280   -7.2980    3.3120 C   0  0  0  0  0  0  0  0  0  0  0  0
    8.4030   -7.3020    2.0250 O   0  0  0  0  0  0  0  0  0  0  0  0
    3.7520   -4.2990    0.8430 C   0  0  0  0  0  0  0  0  0  0  0  0
    2.6660   -4.6520    1.2940 O   0  0  0  0  0  0  0  0  0  0  0  0
    3.8320   -3.1020   -0.0460 C   0  0  0  0  0  0  0  0  0  0  0  0
    3.1610   -3.0580   -1.2130 C   0  0  0  0  0  0  0  0  0  0  0  0
    3.1590   -1.9710   -2.0680 C   0  0  0  0  0  0  0  0  0  0  0  0
    3.9160   -0.8720   -1.7400 C   0  0  0  0  0  0  0  0  0  0  0  0
    4.6350   -0.8820   -0.5530 C   0  0  0  0  0  0  0  0  0  0  0  0
    4.5890   -1.9990    0.2810 C   0  0  0  0  0  0  0  0  0  0  0  0
 10  9  1  0
  1 10  1  0
  2  1  1  0
  3  2  2  0
  4  3  1  0
 11  4  1  0
 12 11  2  0
 13 11  1  0
 14 13  2  0
 15 14  1  0
 16 15  2  0
 17 16  1  0
 18 17  2  0
 18 13  1  0
  5  4  2  0
  6  5  1  0
  7  5  1  0
  7  1  2  0
  6  8  1  0
M  END
> <structure>
ox1_esm1_f8

> <pose>
9

> <is_reference>
0

> <rmsd_to_reference_A>
6.967

> <vina_score>
-6.1

> <minimizedAffinity>
-5.91877

> <CNNscore>
0.1462433040

> <CNNaffinity>
2.9820888042

> <CNN_VS>
0.4361105263

> <CNNaffinity_variance>
0.7878775597

$$$$
