ox2_shuffle_pose0_reference


 18 19  0  0  0  0  0  0  0  0999 V2000
   -3.7540   -5.8100    8.2220 C   0  0  0  0  0  0  0  0  0  0  0  0
   -2.8150   -4.9870    8.8240 C   0  0  0  0  0  0  0  0  0  0  0  0
   -2.1030   -4.0730    8.0770 C   0  0  0  0  0  0  0  0  0  0  0  0
   -2.3140   -3.9710    6.7080 C   0  0  0  0  0  0  0  0  0  0  0  0
   -3.2560   -4.8080    6.0920 C   0  0  0  0  0  0  0  0  0  0  0  0
   -3.4660   -4.7170    4.7490 O   0  0  0  0  0  0  0  0  0  0  0  0
   -3.9700   -5.7190    6.8600 C   0  0  0  0  0  0  0  0  0  0  0  0
   -2.9794   -4.0993    4.2395 H   0  0  0  0  0  0  0  0  0  0  0  0
   -5.6890   -7.1780    8.6380 C   0  0  0  0  0  0  0  0  0  0  0  0
   -4.4300   -6.6920    9.0270 O   0  0  0  0  0  0  0  0  0  0  0  0
   -1.5370   -2.9750    5.8880 C   0  0  0  0  0  0  0  0  0  0  0  0
   -1.7530   -2.8800    4.7010 O   0  0  0  0  0  0  0  0  0  0  0  0
   -0.5030   -2.1320    6.5240 C   0  0  0  0  0  0  0  0  0  0  0  0
   -0.8610   -1.1080    7.3930 C   0  0  0  0  0  0  0  0  0  0  0  0
    0.1220   -0.3180    7.9700 C   0  0  0  0  0  0  0  0  0  0  0  0
    1.4650   -0.5570    7.6870 C   0  0  0  0  0  0  0  0  0  0  0  0
    1.8230   -1.5710    6.8070 C   0  0  0  0  0  0  0  0  0  0  0  0
    0.8350   -2.3570    6.2100 C   0  0  0  0  0  0  0  0  0  0  0  0
 10  9  1  0
  1 10  1  0
  2  1  1  0
  3  2  2  0
  4  3  1  0
 11  4  1  0
 12 11  2  0
 13 11  1  0
 14 13  2  0
 15 14  1  0
 16 15  2  0
 17 16  1  0
 18 17  2  0
 18 13  1  0
  5  4  2  0
  6  5  1  0
  7  1  2  0
  7  5  1  0
  6  8  1  0
M  END
> <structure>
ox2_shuffle

> <pose>
0

> <is_reference>
1

> <rmsd_to_reference_A>
0.000

> <vina_score>


> <minimizedAffinity>
-3.39894

> <CNNscore>
0.4619056880

> <CNNaffinity>
3.4623286724

> <CNN_VS>
1.5992692709

> <CNNaffinity_variance>
0.1909565926

$$$$
ox2_shuffle_pose1


 18 19  0  0  0  0  0  0  0  0999 V2000
    1.4950   -2.3320    7.3430 C   0  0  0  0  0  0  0  0  0  0  0  0
    1.2210   -3.5750    7.8920 C   0  0  0  0  0  0  0  0  0  0  0  0
   -0.0700   -4.0580    7.9230 C   0  0  0  0  0  0  0  0  0  0  0  0
   -1.1140   -3.3000    7.4100 C   0  0  0  0  0  0  0  0  0  0  0  0
   -0.8450   -2.0370    6.8620 C   0  0  0  0  0  0  0  0  0  0  0  0
   -1.8640   -1.2850    6.3610 O   0  0  0  0  0  0  0  0  0  0  0  0
    0.4620   -1.5680    6.8320 C   0  0  0  0  0  0  0  0  0  0  0  0
   -2.7424   -1.6102    6.3859 H   0  0  0  0  0  0  0  0  0  0  0  0
    3.2120   -0.8870    6.4760 C   0  0  0  0  0  0  0  0  0  0  0  0
    2.8020   -1.9170    7.3390 O   0  0  0  0  0  0  0  0  0  0  0  0
   -2.5260   -3.8230    7.4450 C   0  0  0  0  0  0  0  0  0  0  0  0
   -3.3610   -3.2470    8.1050 O   0  0  0  0  0  0  0  0  0  0  0  0
   -2.8860   -5.0430    6.6930 C   0  0  0  0  0  0  0  0  0  0  0  0
   -3.2270   -4.9710    5.3470 C   0  0  0  0  0  0  0  0  0  0  0  0
   -3.5750   -6.1240    4.6610 C   0  0  0  0  0  0  0  0  0  0  0  0
   -3.5750   -7.3540    5.3160 C   0  0  0  0  0  0  0  0  0  0  0  0
   -3.2490   -7.4250    6.6650 C   0  0  0  0  0  0  0  0  0  0  0  0
   -2.9150   -6.2630    7.3640 C   0  0  0  0  0  0  0  0  0  0  0  0
 10  9  1  0
  1 10  1  0
  2  1  1  0
  3  2  2  0
  4  3  1  0
 11  4  1  0
 12 11  2  0
 13 11  1  0
 14 13  2  0
 15 14  1  0
 16 15  2  0
 17 16  1  0
 18 17  2  0
 18 13  1  0
  5  4  2  0
  6  5  1  0
  7  1  2  0
  7  5  1  0
  6  8  1  0
M  END
> <structure>
ox2_shuffle

> <pose>
1

> <is_reference>
0

> <rmsd_to_reference_A>
6.030

> <vina_score>
-4.5

> <minimizedAffinity>
-4.58222

> <CNNscore>
0.4518816769

> <CNNaffinity>
3.4284126759

> <CNN_VS>
1.5492368937

> <CNNaffinity_variance>
0.1882873774

$$$$
ox2_shuffle_pose2


 18 19  0  0  0  0  0  0  0  0999 V2000
   -4.8830   -8.3020    2.5600 C   0  0  0  0  0  0  0  0  0  0  0  0
   -6.1330   -8.8890    2.4360 C   0  0  0  0  0  0  0  0  0  0  0  0
   -7.1100   -8.3010    1.6630 C   0  0  0  0  0  0  0  0  0  0  0  0
   -6.8560   -7.1050    1.0030 C   0  0  0  0  0  0  0  0  0  0  0  0
   -5.5960   -6.5010    1.1320 C   0  0  0  0  0  0  0  0  0  0  0  0
   -5.3400   -5.3270    0.4910 O   0  0  0  0  0  0  0  0  0  0  0  0
   -4.6200   -7.1110    1.9100 C   0  0  0  0  0  0  0  0  0  0  0  0
   -6.0052   -4.9237   -0.0314 H   0  0  0  0  0  0  0  0  0  0  0  0
   -4.2340   -9.2050    4.6940 C   0  0  0  0  0  0  0  0  0  0  0  0
   -3.9570   -8.9450    3.3410 O   0  0  0  0  0  0  0  0  0  0  0  0
   -7.9210   -6.4580    0.1580 C   0  0  0  0  0  0  0  0  0  0  0  0
   -7.7940   -6.4290   -1.0450 O   0  0  0  0  0  0  0  0  0  0  0  0
   -9.1060   -5.8450    0.7940 C   0  0  0  0  0  0  0  0  0  0  0  0
   -9.9750   -6.6130    1.5600 C   0  0  0  0  0  0  0  0  0  0  0  0
  -11.0890   -6.0240    2.1390 C   0  0  0  0  0  0  0  0  0  0  0  0
  -11.3310   -4.6640    1.9610 C   0  0  0  0  0  0  0  0  0  0  0  0
  -10.4710   -3.8980    1.1830 C   0  0  0  0  0  0  0  0  0  0  0  0
   -9.3580   -4.4920    0.5840 C   0  0  0  0  0  0  0  0  0  0  0  0
 10  9  1  0
  1 10  1  0
  2  1  1  0
  3  2  2  0
  4  3  1  0
 11  4  1  0
 12 11  2  0
 13 11  1  0
 14 13  2  0
 15 14  1  0
 16 15  2  0
 17 16  1  0
 18 17  2  0
 18 13  1  0
  5  4  2  0
  6  5  1  0
  7  1  2  0
  7  5  1  0
  6  8  1  0
M  END
> <structure>
ox2_shuffle

> <pose>
2

> <is_reference>
0

> <rmsd_to_reference_A>
9.588

> <vina_score>
-4.4

> <minimizedAffinity>
-4.33968

> <CNNscore>
0.3487037718

> <CNNaffinity>
3.2070550919

> <CNN_VS>
1.1183122396

> <CNNaffinity_variance>
0.3203418553

$$$$
ox2_shuffle_pose3


 18 19  0  0  0  0  0  0  0  0999 V2000
   -4.0380   -8.9240   -0.6380 C   0  0  0  0  0  0  0  0  0  0  0  0
   -5.2730   -9.1610   -1.2230 C   0  0  0  0  0  0  0  0  0  0  0  0
   -6.3460   -8.3410   -0.9490 C   0  0  0  0  0  0  0  0  0  0  0  0
   -6.2050   -7.2690   -0.0770 C   0  0  0  0  0  0  0  0  0  0  0  0
   -4.9600   -7.0300    0.5240 C   0  0  0  0  0  0  0  0  0  0  0  0
   -4.8140   -5.9830    1.3830 O   0  0  0  0  0  0  0  0  0  0  0  0
   -3.8870   -7.8620    0.2330 C   0  0  0  0  0  0  0  0  0  0  0  0
   -5.5442   -5.4274    1.5728 H   0  0  0  0  0  0  0  0  0  0  0  0
   -2.1620   -9.4810   -2.0380 C   0  0  0  0  0  0  0  0  0  0  0  0
   -3.0130   -9.7770   -0.9600 O   0  0  0  0  0  0  0  0  0  0  0  0
   -7.3750   -6.3710    0.2250 C   0  0  0  0  0  0  0  0  0  0  0  0
   -7.4260   -5.2680   -0.2690 O   0  0  0  0  0  0  0  0  0  0  0  0
   -8.4460   -6.8260    1.1360 C   0  0  0  0  0  0  0  0  0  0  0  0
   -8.2960   -7.9920    1.8790 C   0  0  0  0  0  0  0  0  0  0  0  0
   -9.3170   -8.4110    2.7190 C   0  0  0  0  0  0  0  0  0  0  0  0
  -10.4860   -7.6600    2.8250 C   0  0  0  0  0  0  0  0  0  0  0  0
  -10.6430   -6.5030    2.0720 C   0  0  0  0  0  0  0  0  0  0  0  0
   -9.6250   -6.0870    1.2120 C   0  0  0  0  0  0  0  0  0  0  0  0
 10  9  1  0
  1 10  1  0
  2  1  1  0
  3  2  2  0
  4  3  1  0
 11  4  1  0
 12 11  2  0
 13 11  1  0
 14 13  2  0
 15 14  1  0
 16 15  2  0
 17 16  1  0
 18 17  2  0
 18 13  1  0
  5  4  2  0
  6  5  1  0
  7  1  2  0
  7  5  1  0
  6  8  1  0
M  END
> <structure>
ox2_shuffle

> <pose>
3

> <is_reference>
0

> <rmsd_to_reference_A>
10.485

> <vina_score>
-4.3

> <minimizedAffinity>
-4.15121

> <CNNscore>
0.3552982211

> <CNNaffinity>
3.4807198048

> <CNN_VS>
1.2366935015

> <CNNaffinity_variance>
0.0699593201

$$$$
ox2_shuffle_pose4


 18 19  0  0  0  0  0  0  0  0999 V2000
   -8.6190   -6.3250    0.4440 C   0  0  0  0  0  0  0  0  0  0  0  0
   -8.5170   -7.5260    1.1300 C   0  0  0  0  0  0  0  0  0  0  0  0
   -7.2880   -7.9920    1.5450 C   0  0  0  0  0  0  0  0  0  0  0  0
   -6.1350   -7.2660    1.2750 C   0  0  0  0  0  0  0  0  0  0  0  0
   -6.2320   -6.0560    0.5730 C   0  0  0  0  0  0  0  0  0  0  0  0
   -5.1060   -5.3400    0.3000 O   0  0  0  0  0  0  0  0  0  0  0  0
   -7.4790   -5.5960    0.1670 C   0  0  0  0  0  0  0  0  0  0  0  0
   -4.2696   -5.6582    0.5778 H   0  0  0  0  0  0  0  0  0  0  0  0
  -10.4290   -4.7480    0.6090 C   0  0  0  0  0  0  0  0  0  0  0  0
   -9.8740   -5.9190    0.0660 O   0  0  0  0  0  0  0  0  0  0  0  0
   -4.7900   -7.7730    1.7250 C   0  0  0  0  0  0  0  0  0  0  0  0
   -4.0650   -8.3300    0.9320 O   0  0  0  0  0  0  0  0  0  0  0  0
   -4.3660   -7.6100    3.1310 C   0  0  0  0  0  0  0  0  0  0  0  0
   -4.3940   -8.6870    4.0090 C   0  0  0  0  0  0  0  0  0  0  0  0
   -4.0050   -8.5120    5.3280 C   0  0  0  0  0  0  0  0  0  0  0  0
   -3.5770   -7.2620    5.7700 C   0  0  0  0  0  0  0  0  0  0  0  0
   -3.5630   -6.1810    4.8970 C   0  0  0  0  0  0  0  0  0  0  0  0
   -3.9710   -6.3490    3.5720 C   0  0  0  0  0  0  0  0  0  0  0  0
 10  9  1  0
  1 10  1  0
  2  1  1  0
  3  2  2  0
  4  3  1  0
 11  4  1  0
 12 11  2  0
 13 11  1  0
 14 13  2  0
 15 14  1  0
 16 15  2  0
 17 16  1  0
 18 17  2  0
 18 13  1  0
  5  4  2  0
  6  5  1  0
  7  1  2  0
  7  5  1  0
  6  8  1  0
M  END
> <structure>
ox2_shuffle

> <pose>
4

> <is_reference>
0

> <rmsd_to_reference_A>
8.200

> <vina_score>
-4.2

> <minimizedAffinity>
-4.33576

> <CNNscore>
0.4722043276

> <CNNaffinity>
3.6271421909

> <CNN_VS>
1.7127522230

> <CNNaffinity_variance>
0.1314053386

$$$$
ox2_shuffle_pose5


 18 19  0  0  0  0  0  0  0  0999 V2000
   -0.0540   -2.4680    7.7390 C   0  0  0  0  0  0  0  0  0  0  0  0
   -0.7300   -3.3420    8.5750 C   0  0  0  0  0  0  0  0  0  0  0  0
   -1.7560   -4.1250    8.0890 C   0  0  0  0  0  0  0  0  0  0  0  0
   -2.1280   -4.0410    6.7530 C   0  0  0  0  0  0  0  0  0  0  0  0
   -1.4530   -3.1510    5.9050 C   0  0  0  0  0  0  0  0  0  0  0  0
   -1.8150   -3.0600    4.5940 O   0  0  0  0  0  0  0  0  0  0  0  0
   -0.4180   -2.3740    6.4090 C   0  0  0  0  0  0  0  0  0  0  0  0
   -2.5146   -3.5884    4.2634 H   0  0  0  0  0  0  0  0  0  0  0  0
    0.8220   -0.3330    8.4170 C   0  0  0  0  0  0  0  0  0  0  0  0
    0.9600   -1.7240    8.2890 O   0  0  0  0  0  0  0  0  0  0  0  0
   -3.2490   -4.8930    6.2180 C   0  0  0  0  0  0  0  0  0  0  0  0
   -3.3360   -5.0860    5.0270 O   0  0  0  0  0  0  0  0  0  0  0  0
   -4.2480   -5.4740    7.1400 C   0  0  0  0  0  0  0  0  0  0  0  0
   -4.2100   -6.8250    7.4640 C   0  0  0  0  0  0  0  0  0  0  0  0
   -5.1640   -7.3550    8.3200 C   0  0  0  0  0  0  0  0  0  0  0  0
   -6.1510   -6.5340    8.8600 C   0  0  0  0  0  0  0  0  0  0  0  0
   -6.1980   -5.1860    8.5240 C   0  0  0  0  0  0  0  0  0  0  0  0
   -5.2500   -4.6520    7.6490 C   0  0  0  0  0  0  0  0  0  0  0  0
 10  9  1  0
  1 10  1  0
  2  1  1  0
  3  2  2  0
  4  3  1  0
 11  4  1  0
 12 11  2  0
 13 11  1  0
 14 13  2  0
 15 14  1  0
 16 15  2  0
 17 16  1  0
 18 17  2  0
 18 13  1  0
  5  4  2  0
  6  5  1  0
  7  1  2  0
  7  5  1  0
  6  8  1  0
M  END
> <structure>
ox2_shuffle

> <pose>
5

> <is_reference>
0

> <rmsd_to_reference_A>
5.809

> <vina_score>
-4.2

> <minimizedAffinity>
-4.48711

> <CNNscore>
0.4238210917

> <CNNaffinity>
3.4723522663

> <CNN_VS>
1.4716560841

> <CNNaffinity_variance>
0.1628847271

$$$$
ox2_shuffle_pose6


 18 19  0  0  0  0  0  0  0  0999 V2000
   -7.0700   -8.3180    1.8190 C   0  0  0  0  0  0  0  0  0  0  0  0
   -8.3760   -8.3250    2.2850 C   0  0  0  0  0  0  0  0  0  0  0  0
   -9.2990   -7.4260    1.7950 C   0  0  0  0  0  0  0  0  0  0  0  0
   -8.9290   -6.4970    0.8310 C   0  0  0  0  0  0  0  0  0  0  0  0
   -7.6070   -6.4790    0.3630 C   0  0  0  0  0  0  0  0  0  0  0  0
   -7.2350   -5.5680   -0.5790 O   0  0  0  0  0  0  0  0  0  0  0  0
   -6.6900   -7.3960    0.8630 C   0  0  0  0  0  0  0  0  0  0  0  0
   -7.8607   -4.9540   -0.9098 H   0  0  0  0  0  0  0  0  0  0  0  0
   -4.8820   -8.8830    2.6460 C   0  0  0  0  0  0  0  0  0  0  0  0
   -6.2060   -9.2440    2.3470 O   0  0  0  0  0  0  0  0  0  0  0  0
   -9.9340   -5.5120    0.2950 C   0  0  0  0  0  0  0  0  0  0  0  0
  -10.4420   -5.7060   -0.7860 O   0  0  0  0  0  0  0  0  0  0  0  0
  -10.2840   -4.3060    1.0740 C   0  0  0  0  0  0  0  0  0  0  0  0
   -9.5830   -3.1190    0.8930 C   0  0  0  0  0  0  0  0  0  0  0  0
   -9.9160   -2.0010    1.6430 C   0  0  0  0  0  0  0  0  0  0  0  0
  -10.9570   -2.0640    2.5670 C   0  0  0  0  0  0  0  0  0  0  0  0
  -11.6480   -3.2540    2.7580 C   0  0  0  0  0  0  0  0  0  0  0  0
  -11.3040   -4.3880    2.0180 C   0  0  0  0  0  0  0  0  0  0  0  0
 10  9  1  0
  1 10  1  0
  2  1  1  0
  3  2  2  0
  4  3  1  0
 11  4  1  0
 12 11  2  0
 13 11  1  0
 14 13  2  0
 15 14  1  0
 16 15  2  0
 17 16  1  0
 18 17  2  0
 18 13  1  0
  5  4  2  0
  6  5  1  0
  7  1  2  0
  7  5  1  0
  6  8  1  0
M  END
> <structure>
ox2_shuffle

> <pose>
6

> <is_reference>
0

> <rmsd_to_reference_A>
10.082

> <vina_score>
-4.0

> <minimizedAffinity>
-3.77180

> <CNNscore>
0.3278665841

> <CNNaffinity>
3.2664744854

> <CNN_VS>
1.0709677935

> <CNNaffinity_variance>
0.2296835929

$$$$
ox2_shuffle_pose7


 18 19  0  0  0  0  0  0  0  0999 V2000
    4.7170   -3.6770    4.8900 C   0  0  0  0  0  0  0  0  0  0  0  0
    4.6320   -5.0560    5.0000 C   0  0  0  0  0  0  0  0  0  0  0  0
    4.7050   -5.8540    3.8780 C   0  0  0  0  0  0  0  0  0  0  0  0
    4.8570   -5.2830    2.6210 C   0  0  0  0  0  0  0  0  0  0  0  0
    4.9330   -3.8870    2.5030 C   0  0  0  0  0  0  0  0  0  0  0  0
    5.0780   -3.3190    1.2730 O   0  0  0  0  0  0  0  0  0  0  0  0
    4.8650   -3.0980    3.6440 C   0  0  0  0  0  0  0  0  0  0  0  0
    5.1228   -3.8602    0.5094 H   0  0  0  0  0  0  0  0  0  0  0  0
    3.3960   -2.5210    6.5350 C   0  0  0  0  0  0  0  0  0  0  0  0
    4.6430   -2.9450    6.0480 O   0  0  0  0  0  0  0  0  0  0  0  0
    4.9350   -6.1510    1.3920 C   0  0  0  0  0  0  0  0  0  0  0  0
    5.6640   -5.8320    0.4810 O   0  0  0  0  0  0  0  0  0  0  0  0
    4.1120   -7.3740    1.2910 C   0  0  0  0  0  0  0  0  0  0  0  0
    2.7290   -7.2890    1.1860 C   0  0  0  0  0  0  0  0  0  0  0  0
    1.9710   -8.4480    1.1060 C   0  0  0  0  0  0  0  0  0  0  0  0
    2.5960   -9.6930    1.1210 C   0  0  0  0  0  0  0  0  0  0  0  0
    3.9770   -9.7790    1.2420 C   0  0  0  0  0  0  0  0  0  0  0  0
    4.7420   -8.6150    1.3410 C   0  0  0  0  0  0  0  0  0  0  0  0
 10  9  1  0
  1 10  1  0
  2  1  1  0
  3  2  2  0
  4  3  1  0
 11  4  1  0
 12 11  2  0
 13 11  1  0
 14 13  2  0
 15 14  1  0
 16 15  2  0
 17 16  1  0
 18 17  2  0
 18 13  1  0
  5  4  2  0
  6  5  1  0
  7  1  2  0
  7  5  1  0
  6  8  1  0
M  END
> <structure>
ox2_shuffle

> <pose>
7

> <is_reference>
0

> <rmsd_to_reference_A>
9.445

> <vina_score>
-4.0

> <minimizedAffinity>
-4.09888

> <CNNscore>
0.2644237876

> <CNNaffinity>
2.8838577271

> <CNN_VS>
0.7625606060

> <CNNaffinity_variance>
0.5442821383

$$$$
ox2_shuffle_pose8


 18 19  0  0  0  0  0  0  0  0999 V2000
    0.0520   -1.5650    7.5860 C   0  0  0  0  0  0  0  0  0  0  0  0
    0.5620   -2.8470    7.4540 C   0  0  0  0  0  0  0  0  0  0  0  0
   -0.2490   -3.9460    7.6400 C   0  0  0  0  0  0  0  0  0  0  0  0
   -1.5880   -3.7800    7.9700 C   0  0  0  0  0  0  0  0  0  0  0  0
   -2.1070   -2.4850    8.1150 C   0  0  0  0  0  0  0  0  0  0  0  0
   -3.4180   -2.3140    8.4420 O   0  0  0  0  0  0  0  0  0  0  0  0
   -1.2780   -1.3880    7.9170 C   0  0  0  0  0  0  0  0  0  0  0  0
   -3.9692   -3.0602    8.5735 H   0  0  0  0  0  0  0  0  0  0  0  0
    2.2030   -0.7550    6.8740 C   0  0  0  0  0  0  0  0  0  0  0  0
    0.9150   -0.5170    7.3810 O   0  0  0  0  0  0  0  0  0  0  0  0
   -2.4780   -4.9780    8.1760 C   0  0  0  0  0  0  0  0  0  0  0  0
   -2.8520   -5.2600    9.2920 O   0  0  0  0  0  0  0  0  0  0  0  0
   -2.8750   -5.8170    7.0260 C   0  0  0  0  0  0  0  0  0  0  0  0
   -2.8590   -7.2030    7.1220 C   0  0  0  0  0  0  0  0  0  0  0  0
   -3.2220   -7.9750    6.0290 C   0  0  0  0  0  0  0  0  0  0  0  0
   -3.6120   -7.3610    4.8400 C   0  0  0  0  0  0  0  0  0  0  0  0
   -3.6150   -5.9760    4.7390 C   0  0  0  0  0  0  0  0  0  0  0  0
   -3.2330   -5.1960    5.8320 C   0  0  0  0  0  0  0  0  0  0  0  0
 10  9  1  0
  1 10  1  0
  2  1  1  0
  3  2  2  0
  4  3  1  0
 11  4  1  0
 12 11  2  0
 13 11  1  0
 14 13  2  0
 15 14  1  0
 16 15  2  0
 17 16  1  0
 18 17  2  0
 18 13  1  0
  5  4  2  0
  6  5  1  0
  7  1  2  0
  7  5  1  0
  6  8  1  0
M  END
> <structure>
ox2_shuffle

> <pose>
8

> <is_reference>
0

> <rmsd_to_reference_A>
6.009

> <vina_score>
-4.0

> <minimizedAffinity>
-4.02910

> <CNNscore>
0.4486444592

> <CNNaffinity>
3.4690854549

> <CNN_VS>
1.5563859940

> <CNNaffinity_variance>
0.1576566845

$$$$
ox2_shuffle_pose9


 18 19  0  0  0  0  0  0  0  0999 V2000
   -8.3970    3.9230    3.2130 C   0  0  0  0  0  0  0  0  0  0  0  0
   -9.6720    3.3940    3.3410 C   0  0  0  0  0  0  0  0  0  0  0  0
   -9.8620    2.0290    3.3860 C   0  0  0  0  0  0  0  0  0  0  0  0
   -8.7770    1.1670    3.2960 C   0  0  0  0  0  0  0  0  0  0  0  0
   -7.4860    1.6970    3.1570 C   0  0  0  0  0  0  0  0  0  0  0  0
   -6.4170    0.8580    3.0650 O   0  0  0  0  0  0  0  0  0  0  0  0
   -7.3100    3.0750    3.1210 C   0  0  0  0  0  0  0  0  0  0  0  0
   -6.5460   -0.0697    3.0903 H   0  0  0  0  0  0  0  0  0  0  0  0
   -8.5350    5.9910    1.9910 C   0  0  0  0  0  0  0  0  0  0  0  0
   -8.2810    5.2900    3.1810 O   0  0  0  0  0  0  0  0  0  0  0  0
   -8.9810   -0.3240    3.3430 C   0  0  0  0  0  0  0  0  0  0  0  0
   -8.6160   -0.9470    4.3140 O   0  0  0  0  0  0  0  0  0  0  0  0
   -9.6060   -1.0270    2.2030 C   0  0  0  0  0  0  0  0  0  0  0  0
   -9.5680   -0.4770    0.9270 C   0  0  0  0  0  0  0  0  0  0  0  0
  -10.1720   -1.1430   -0.1290 C   0  0  0  0  0  0  0  0  0  0  0  0
  -10.8050   -2.3650    0.0870 C   0  0  0  0  0  0  0  0  0  0  0  0
  -10.8550   -2.9090    1.3650 C   0  0  0  0  0  0  0  0  0  0  0  0
  -10.2640   -2.2320    2.4340 C   0  0  0  0  0  0  0  0  0  0  0  0
 10  9  1  0
  1 10  1  0
  2  1  1  0
  3  2  2  0
  4  3  1  0
 11  4  1  0
 12 11  2  0
 13 11  1  0
 14 13  2  0
 15 14  1  0
 16 15  2  0
 17 16  1  0
 18 17  2  0
 18 13  1  0
  5  4  2  0
  6  5  1  0
  7  1  2  0
  7  5  1  0
  6  8  1  0
M  END
> <structure>
ox2_shuffle

> <pose>
9

> <is_reference>
0

> <rmsd_to_reference_A>
11.302

> <vina_score>
-4.0

> <minimizedAffinity>
-4.06812

> <CNNscore>
0.3520750701

> <CNNaffinity>
3.1552441120

> <CNN_VS>
1.1108827591

> <CNNaffinity_variance>
0.5505378842

$$$$
