ox2_shuffle_esm0_pose0_reference


 18 19  0  0  0  0  0  0  0  0999 V2000
   -3.7990   -3.5190    0.0150 C   0  0  0  0  0  0  0  0  0  0  0  0
   -3.1820   -3.0990    1.1870 C   0  0  0  0  0  0  0  0  0  0  0  0
   -1.8120   -3.0760    1.2650 C   0  0  0  0  0  0  0  0  0  0  0  0
   -1.0360   -3.4580    0.1950 C   0  0  0  0  0  0  0  0  0  0  0  0
   -1.6540   -3.8970   -0.9680 C   0  0  0  0  0  0  0  0  0  0  0  0
   -0.8770   -4.2980   -2.0100 O   0  0  0  0  0  0  0  0  0  0  0  0
   -3.0330   -3.9150   -1.0530 C   0  0  0  0  0  0  0  0  0  0  0  0
    0.0566   -4.2785   -1.9329 H   0  0  0  0  0  0  0  0  0  0  0  0
   -6.0040   -3.5600    1.0190 C   0  0  0  0  0  0  0  0  0  0  0  0
   -5.1440   -3.5410   -0.1240 O   0  0  0  0  0  0  0  0  0  0  0  0
    0.4510   -3.4320    0.2260 C   0  0  0  0  0  0  0  0  0  0  0  0
    1.0290   -4.2060   -0.4940 O   0  0  0  0  0  0  0  0  0  0  0  0
    1.2710   -2.4920    1.0160 C   0  0  0  0  0  0  0  0  0  0  0  0
    2.6550   -2.5020    0.8470 C   0  0  0  0  0  0  0  0  0  0  0  0
    3.4550   -1.6270    1.5460 C   0  0  0  0  0  0  0  0  0  0  0  0
    2.9000   -0.7260    2.4320 C   0  0  0  0  0  0  0  0  0  0  0  0
    1.5290   -0.7010    2.5970 C   0  0  0  0  0  0  0  0  0  0  0  0
    0.7290   -1.5750    1.8830 C   0  0  0  0  0  0  0  0  0  0  0  0
 10  9  1  0
  1 10  1  0
  2  1  1  0
  3  2  2  0
  4  3  1  0
 11  4  1  0
 12 11  2  0
 13 11  1  0
 14 13  2  0
 15 14  1  0
 16 15  2  0
 17 16  1  0
 18 17  2  0
 18 13  1  0
  5  4  2  0
  6  5  1  0
  7  5  1  0
  7  1  2  0
  6  8  1  0
M  END
> <structure>
ox2_shuffle_esm0

> <pose>
0

> <is_reference>
1

> <rmsd_to_reference_A>
0.000

> <vina_score>


> <minimizedAffinity>
-3.80543

> <CNNscore>
0.8065701127

> <CNNaffinity>
5.2017059326

> <CNN_VS>
4.1955404282

> <CNNaffinity_variance>
0.8007354736

$$$$
ox2_shuffle_esm0_pose1


 18 19  0  0  0  0  0  0  0  0999 V2000
    0.8930   -7.2320    0.8740 C   0  0  0  0  0  0  0  0  0  0  0  0
   -0.2770   -7.2100    1.6240 C   0  0  0  0  0  0  0  0  0  0  0  0
   -1.2830   -6.3380    1.2900 C   0  0  0  0  0  0  0  0  0  0  0  0
   -1.1540   -5.4860    0.2180 C   0  0  0  0  0  0  0  0  0  0  0  0
    0.0240   -5.4950   -0.5170 C   0  0  0  0  0  0  0  0  0  0  0  0
    0.1520   -4.6290   -1.5580 O   0  0  0  0  0  0  0  0  0  0  0  0
    1.0360   -6.3760   -0.1890 C   0  0  0  0  0  0  0  0  0  0  0  0
   -0.5458   -4.0389   -1.7650 H   0  0  0  0  0  0  0  0  0  0  0  0
    2.7120   -7.9260    2.3170 C   0  0  0  0  0  0  0  0  0  0  0  0
    1.9060   -8.0860    1.1450 O   0  0  0  0  0  0  0  0  0  0  0  0
   -2.2240   -4.5370   -0.1930 C   0  0  0  0  0  0  0  0  0  0  0  0
   -2.7650   -4.7440   -1.2490 O   0  0  0  0  0  0  0  0  0  0  0  0
   -2.7170   -3.4060    0.6170 C   0  0  0  0  0  0  0  0  0  0  0  0
   -4.0750   -3.0920    0.5760 C   0  0  0  0  0  0  0  0  0  0  0  0
   -4.5820   -2.0610    1.3340 C   0  0  0  0  0  0  0  0  0  0  0  0
   -3.7510   -1.3140    2.1440 C   0  0  0  0  0  0  0  0  0  0  0  0
   -2.4070   -1.6250    2.2000 C   0  0  0  0  0  0  0  0  0  0  0  0
   -1.9050   -2.6700    1.4450 C   0  0  0  0  0  0  0  0  0  0  0  0
 10  9  1  0
  1 10  1  0
  2  1  1  0
  3  2  2  0
  4  3  1  0
 11  4  1  0
 12 11  2  0
 13 11  1  0
 14 13  2  0
 15 14  1  0
 16 15  2  0
 17 16  1  0
 18 17  2  0
 18 13  1  0
  5  4  2  0
  6  5  1  0
  7  5  1  0
  7  1  2  0
  6  8  1  0
M  END
> <structure>
ox2_shuffle_esm0

> <pose>
1

> <is_reference>
0

> <rmsd_to_reference_A>
5.343

> <vina_score>
-5.3

> <minimizedAffinity>
-5.41993

> <CNNscore>
0.2983799279

> <CNNaffinity>
3.5977687836

> <CNN_VS>
1.0735019445

> <CNNaffinity_variance>
0.4949797094

$$$$
ox2_shuffle_esm0_pose2


 18 19  0  0  0  0  0  0  0  0999 V2000
    0.3510   -5.8890   -0.4500 C   0  0  0  0  0  0  0  0  0  0  0  0
    0.1390   -4.6920   -1.1220 C   0  0  0  0  0  0  0  0  0  0  0  0
   -1.0980   -4.0970   -1.0800 C   0  0  0  0  0  0  0  0  0  0  0  0
   -2.1330   -4.6670   -0.3760 C   0  0  0  0  0  0  0  0  0  0  0  0
   -1.9250   -5.8740    0.2770 C   0  0  0  0  0  0  0  0  0  0  0  0
   -2.9640   -6.4420    0.9480 O   0  0  0  0  0  0  0  0  0  0  0  0
   -0.6800   -6.4720    0.2440 C   0  0  0  0  0  0  0  0  0  0  0  0
   -3.8010   -6.0209    0.9587 H   0  0  0  0  0  0  0  0  0  0  0  0
    2.5440   -6.1770    0.5390 C   0  0  0  0  0  0  0  0  0  0  0  0
    1.5540   -6.5070   -0.4390 O   0  0  0  0  0  0  0  0  0  0  0  0
   -3.4840   -4.0510   -0.2870 C   0  0  0  0  0  0  0  0  0  0  0  0
   -4.3390   -4.4940   -1.0110 O   0  0  0  0  0  0  0  0  0  0  0  0
   -3.8760   -2.9890    0.6610 C   0  0  0  0  0  0  0  0  0  0  0  0
   -2.8910   -2.3920    1.4450 C   0  0  0  0  0  0  0  0  0  0  0  0
   -3.2080   -1.3820    2.3250 C   0  0  0  0  0  0  0  0  0  0  0  0
   -4.5120   -0.9470    2.4500 C   0  0  0  0  0  0  0  0  0  0  0  0
   -5.4930   -1.5250    1.6680 C   0  0  0  0  0  0  0  0  0  0  0  0
   -5.1660   -2.5310    0.7770 C   0  0  0  0  0  0  0  0  0  0  0  0
 10  9  1  0
  1 10  1  0
  2  1  1  0
  3  2  2  0
  4  3  1  0
 11  4  1  0
 12 11  2  0
 13 11  1  0
 14 13  2  0
 15 14  1  0
 16 15  2  0
 17 16  1  0
 18 17  2  0
 18 13  1  0
  5  4  2  0
  6  5  1  0
  7  5  1  0
  7  1  2  0
  6  8  1  0
M  END
> <structure>
ox2_shuffle_esm0

> <pose>
2

> <is_reference>
0

> <rmsd_to_reference_A>
5.499

> <vina_score>
-5.2

> <minimizedAffinity>
-5.36989

> <CNNscore>
0.5970929861

> <CNNaffinity>
3.3039104939

> <CNN_VS>
1.9727417231

> <CNNaffinity_variance>
0.4568016231

$$$$
ox2_shuffle_esm0_pose3


 18 19  0  0  0  0  0  0  0  0999 V2000
    1.3920   -7.3140    1.0700 C   0  0  0  0  0  0  0  0  0  0  0  0
    0.0150   -7.4530    0.9470 C   0  0  0  0  0  0  0  0  0  0  0  0
   -0.7390   -6.3960    0.5020 C   0  0  0  0  0  0  0  0  0  0  0  0
   -0.1500   -5.1980    0.1690 C   0  0  0  0  0  0  0  0  0  0  0  0
    1.2230   -5.0540    0.3120 C   0  0  0  0  0  0  0  0  0  0  0  0
    1.7910   -3.8570    0.0060 O   0  0  0  0  0  0  0  0  0  0  0  0
    1.9870   -6.1180    0.7530 C   0  0  0  0  0  0  0  0  0  0  0  0
    1.2565   -3.1472   -0.2915 H   0  0  0  0  0  0  0  0  0  0  0  0
    3.0820   -8.1640    2.5850 C   0  0  0  0  0  0  0  0  0  0  0  0
    2.1850   -8.3290    1.4830 O   0  0  0  0  0  0  0  0  0  0  0  0
   -0.9230   -4.0310   -0.3350 C   0  0  0  0  0  0  0  0  0  0  0  0
   -0.7160   -3.6830   -1.4700 O   0  0  0  0  0  0  0  0  0  0  0  0
   -1.9670   -3.3090    0.4200 C   0  0  0  0  0  0  0  0  0  0  0  0
   -1.5800   -2.4430    1.4410 C   0  0  0  0  0  0  0  0  0  0  0  0
   -2.5190   -1.7330    2.1550 C   0  0  0  0  0  0  0  0  0  0  0  0
   -3.8630   -1.8710    1.8740 C   0  0  0  0  0  0  0  0  0  0  0  0
   -4.2550   -2.7180    0.8560 C   0  0  0  0  0  0  0  0  0  0  0  0
   -3.3060   -3.4200    0.1340 C   0  0  0  0  0  0  0  0  0  0  0  0
 10  9  1  0
  1 10  1  0
  2  1  1  0
  3  2  2  0
  4  3  1  0
 11  4  1  0
 12 11  2  0
 13 11  1  0
 14 13  2  0
 15 14  1  0
 16 15  2  0
 17 16  1  0
 18 17  2  0
 18 13  1  0
  5  4  2  0
  6  5  1  0
  7  5  1  0
  7  1  2  0
  6  8  1  0
M  END
> <structure>
ox2_shuffle_esm0

> <pose>
3

> <is_reference>
0

> <rmsd_to_reference_A>
5.493

> <vina_score>
-5.1

> <minimizedAffinity>
-5.22904

> <CNNscore>
0.2947717011

> <CNNaffinity>
3.4573230743

> <CNN_VS>
1.0191210508

> <CNNaffinity_variance>
0.4220243394

$$$$
ox2_shuffle_esm0_pose4


 18 19  0  0  0  0  0  0  0  0999 V2000
    2.5580   -2.5670    1.6700 C   0  0  0  0  0  0  0  0  0  0  0  0
    1.3730   -1.9370    1.3110 C   0  0  0  0  0  0  0  0  0  0  0  0
    0.4850   -2.5770    0.4830 C   0  0  0  0  0  0  0  0  0  0  0  0
    0.7480   -3.8390    0.0040 C   0  0  0  0  0  0  0  0  0  0  0  0
    1.9420   -4.4590    0.3470 C   0  0  0  0  0  0  0  0  0  0  0  0
    2.2040   -5.6970   -0.1540 O   0  0  0  0  0  0  0  0  0  0  0  0
    2.8350   -3.8210    1.1870 C   0  0  0  0  0  0  0  0  0  0  0  0
    1.5858   -6.1130   -0.7221 H   0  0  0  0  0  0  0  0  0  0  0  0
    3.6570   -0.5760    2.5060 C   0  0  0  0  0  0  0  0  0  0  0  0
    3.4570   -1.9920    2.5000 O   0  0  0  0  0  0  0  0  0  0  0  0
   -0.1910   -4.5790   -0.8810 C   0  0  0  0  0  0  0  0  0  0  0  0
    0.0790   -4.6230   -2.0540 O   0  0  0  0  0  0  0  0  0  0  0  0
   -1.3870   -5.3170   -0.4270 C   0  0  0  0  0  0  0  0  0  0  0  0
   -2.6410   -4.9060   -0.8780 C   0  0  0  0  0  0  0  0  0  0  0  0
   -3.7800   -5.5800   -0.4990 C   0  0  0  0  0  0  0  0  0  0  0  0
   -3.7010   -6.6730    0.3400 C   0  0  0  0  0  0  0  0  0  0  0  0
   -2.4620   -7.0940    0.7820 C   0  0  0  0  0  0  0  0  0  0  0  0
   -1.3200   -6.4200    0.3880 C   0  0  0  0  0  0  0  0  0  0  0  0
 10  9  1  0
  1 10  1  0
  2  1  1  0
  3  2  2  0
  4  3  1  0
 11  4  1  0
 12 11  2  0
 13 11  1  0
 14 13  2  0
 15 14  1  0
 16 15  2  0
 17 16  1  0
 18 17  2  0
 18 13  1  0
  5  4  2  0
  6  5  1  0
  7  5  1  0
  7  1  2  0
  6  8  1  0
M  END
> <structure>
ox2_shuffle_esm0

> <pose>
4

> <is_reference>
0

> <rmsd_to_reference_A>
6.078

> <vina_score>
-4.9

> <minimizedAffinity>
-4.98489

> <CNNscore>
0.6912831068

> <CNNaffinity>
4.5058512688

> <CNN_VS>
3.1148188114

> <CNNaffinity_variance>
0.0869552195

$$$$
ox2_shuffle_esm0_pose5


 18 19  0  0  0  0  0  0  0  0999 V2000
   -3.4770   -5.9830   -0.4800 C   0  0  0  0  0  0  0  0  0  0  0  0
   -3.1380   -4.7760   -1.0800 C   0  0  0  0  0  0  0  0  0  0  0  0
   -1.8830   -4.2530   -0.8940 C   0  0  0  0  0  0  0  0  0  0  0  0
   -0.9490   -4.9090   -0.1260 C   0  0  0  0  0  0  0  0  0  0  0  0
   -1.2960   -6.1040    0.4890 C   0  0  0  0  0  0  0  0  0  0  0  0
   -0.3740   -6.7310    1.2690 O   0  0  0  0  0  0  0  0  0  0  0  0
   -2.5570   -6.6380    0.2990 C   0  0  0  0  0  0  0  0  0  0  0  0
    0.4755   -6.3533    1.3857 H   0  0  0  0  0  0  0  0  0  0  0  0
   -5.5010   -6.2490   -1.7860 C   0  0  0  0  0  0  0  0  0  0  0  0
   -4.6910   -6.5550   -0.6470 O   0  0  0  0  0  0  0  0  0  0  0  0
    0.4290   -4.3910    0.0880 C   0  0  0  0  0  0  0  0  0  0  0  0
    1.3330   -5.0110   -0.4110 O   0  0  0  0  0  0  0  0  0  0  0  0
    0.7690   -3.1450    0.8050 C   0  0  0  0  0  0  0  0  0  0  0  0
    1.9490   -2.4800    0.4730 C   0  0  0  0  0  0  0  0  0  0  0  0
    2.2930   -1.3040    1.1000 C   0  0  0  0  0  0  0  0  0  0  0  0
    1.4770   -0.7650    2.0740 C   0  0  0  0  0  0  0  0  0  0  0  0
    0.3010   -1.4110    2.4010 C   0  0  0  0  0  0  0  0  0  0  0  0
   -0.0450   -2.5860    1.7590 C   0  0  0  0  0  0  0  0  0  0  0  0
 10  9  1  0
  1 10  1  0
  2  1  1  0
  3  2  2  0
  4  3  1  0
 11  4  1  0
 12 11  2  0
 13 11  1  0
 14 13  2  0
 15 14  1  0
 16 15  2  0
 17 16  1  0
 18 17  2  0
 18 13  1  0
  5  4  2  0
  6  5  1  0
  7  5  1  0
  7  1  2  0
  6  8  1  0
M  END
> <structure>
ox2_shuffle_esm0

> <pose>
5

> <is_reference>
0

> <rmsd_to_reference_A>
2.321

> <vina_score>
-4.8

> <minimizedAffinity>
-4.91095

> <CNNscore>
0.7529359460

> <CNNaffinity>
4.1547026634

> <CNN_VS>
3.1282250881

> <CNNaffinity_variance>
0.1304710656

$$$$
ox2_shuffle_esm0_pose6


 18 19  0  0  0  0  0  0  0  0999 V2000
    1.2990   -6.3240   -0.0600 C   0  0  0  0  0  0  0  0  0  0  0  0
    0.4580   -7.3930    0.2230 C   0  0  0  0  0  0  0  0  0  0  0  0
   -0.8890   -7.1790    0.3760 C   0  0  0  0  0  0  0  0  0  0  0  0
   -1.4230   -5.9180    0.2470 C   0  0  0  0  0  0  0  0  0  0  0  0
   -0.5790   -4.8470   -0.0160 C   0  0  0  0  0  0  0  0  0  0  0  0
   -1.1150   -3.6010   -0.1140 O   0  0  0  0  0  0  0  0  0  0  0  0
    0.7770   -5.0600   -0.1770 C   0  0  0  0  0  0  0  0  0  0  0  0
   -2.0370   -3.4774   -0.0016 H   0  0  0  0  0  0  0  0  0  0  0  0
    3.5670   -6.0340    0.7430 C   0  0  0  0  0  0  0  0  0  0  0  0
    2.6300   -6.4810   -0.2410 O   0  0  0  0  0  0  0  0  0  0  0  0
   -2.8780   -5.6390    0.3850 C   0  0  0  0  0  0  0  0  0  0  0  0
   -3.2350   -5.0660    1.3820 O   0  0  0  0  0  0  0  0  0  0  0  0
   -3.9050   -5.9490   -0.6300 C   0  0  0  0  0  0  0  0  0  0  0  0
   -4.9180   -6.8510   -0.3060 C   0  0  0  0  0  0  0  0  0  0  0  0
   -5.9090   -7.1510   -1.2140 C   0  0  0  0  0  0  0  0  0  0  0  0
   -5.9130   -6.5660   -2.4640 C   0  0  0  0  0  0  0  0  0  0  0  0
   -4.9210   -5.6620   -2.7880 C   0  0  0  0  0  0  0  0  0  0  0  0
   -3.9340   -5.3560   -1.8680 C   0  0  0  0  0  0  0  0  0  0  0  0
 10  9  1  0
  1 10  1  0
  2  1  1  0
  3  2  2  0
  4  3  1  0
 11  4  1  0
 12 11  2  0
 13 11  1  0
 14 13  2  0
 15 14  1  0
 16 15  2  0
 17 16  1  0
 18 17  2  0
 18 13  1  0
  5  4  2  0
  6  5  1  0
  7  5  1  0
  7  1  2  0
  6  8  1  0
M  END
> <structure>
ox2_shuffle_esm0

> <pose>
6

> <is_reference>
0

> <rmsd_to_reference_A>
7.019

> <vina_score>
-4.8

> <minimizedAffinity>
-4.88095

> <CNNscore>
0.2762300968

> <CNNaffinity>
3.4652645588

> <CNN_VS>
0.9572103620

> <CNNaffinity_variance>
0.8511884809

$$$$
ox2_shuffle_esm0_pose7


 18 19  0  0  0  0  0  0  0  0999 V2000
    1.3390   -1.7990    1.2410 C   0  0  0  0  0  0  0  0  0  0  0  0
    0.1260   -1.9530    1.9010 C   0  0  0  0  0  0  0  0  0  0  0  0
   -0.5450   -3.1470    1.8230 C   0  0  0  0  0  0  0  0  0  0  0  0
   -0.0310   -4.2020    1.1040 C   0  0  0  0  0  0  0  0  0  0  0  0
    1.1710   -4.0400    0.4290 C   0  0  0  0  0  0  0  0  0  0  0  0
    1.6570   -5.0800   -0.3010 O   0  0  0  0  0  0  0  0  0  0  0  0
    1.8530   -2.8410    0.5100 C   0  0  0  0  0  0  0  0  0  0  0  0
    1.1802   -5.8855   -0.3440 H   0  0  0  0  0  0  0  0  0  0  0  0
    3.1790   -0.5280    2.1740 C   0  0  0  0  0  0  0  0  0  0  0  0
    2.0520   -0.6520    1.3020 O   0  0  0  0  0  0  0  0  0  0  0  0
   -0.7120   -5.5210    1.0060 C   0  0  0  0  0  0  0  0  0  0  0  0
   -0.1880   -6.4520    1.5630 O   0  0  0  0  0  0  0  0  0  0  0  0
   -2.0070   -5.7640    0.3400 C   0  0  0  0  0  0  0  0  0  0  0  0
   -2.4000   -4.9150   -0.6940 C   0  0  0  0  0  0  0  0  0  0  0  0
   -3.5890   -5.1200   -1.3580 C   0  0  0  0  0  0  0  0  0  0  0  0
   -4.4150   -6.1680   -1.0070 C   0  0  0  0  0  0  0  0  0  0  0  0
   -4.0280   -7.0210    0.0080 C   0  0  0  0  0  0  0  0  0  0  0  0
   -2.8270   -6.8170    0.6630 C   0  0  0  0  0  0  0  0  0  0  0  0
 10  9  1  0
  1 10  1  0
  2  1  1  0
  3  2  2  0
  4  3  1  0
 11  4  1  0
 12 11  2  0
 13 11  1  0
 14 13  2  0
 15 14  1  0
 16 15  2  0
 17 16  1  0
 18 17  2  0
 18 13  1  0
  5  4  2  0
  6  5  1  0
  7  5  1  0
  7  1  2  0
  6  8  1  0
M  END
> <structure>
ox2_shuffle_esm0

> <pose>
7

> <is_reference>
0

> <rmsd_to_reference_A>
5.987

> <vina_score>
-4.7

> <minimizedAffinity>
-4.85160

> <CNNscore>
0.5613089800

> <CNNaffinity>
3.8231437206

> <CNN_VS>
2.1459648609

> <CNNaffinity_variance>
0.3007296622

$$$$
ox2_shuffle_esm0_pose8


 18 19  0  0  0  0  0  0  0  0999 V2000
    2.7560   -7.1760    4.1310 C   0  0  0  0  0  0  0  0  0  0  0  0
    1.3890   -7.4140    4.1820 C   0  0  0  0  0  0  0  0  0  0  0  0
    0.6590   -7.4460    3.0200 C   0  0  0  0  0  0  0  0  0  0  0  0
    1.2630   -7.2500    1.8000 C   0  0  0  0  0  0  0  0  0  0  0  0
    2.6260   -6.9920    1.7520 C   0  0  0  0  0  0  0  0  0  0  0  0
    3.2080   -6.7730    0.5420 O   0  0  0  0  0  0  0  0  0  0  0  0
    3.3660   -6.9660    2.9190 C   0  0  0  0  0  0  0  0  0  0  0  0
    2.6894   -6.7947   -0.2381 H   0  0  0  0  0  0  0  0  0  0  0  0
    3.0350   -7.6520    6.4910 C   0  0  0  0  0  0  0  0  0  0  0  0
    3.5270   -7.1560    5.2420 O   0  0  0  0  0  0  0  0  0  0  0  0
    0.5180   -7.2940    0.5130 C   0  0  0  0  0  0  0  0  0  0  0  0
    0.6100   -8.3010   -0.1410 O   0  0  0  0  0  0  0  0  0  0  0  0
   -0.3760   -6.2320    0.0090 C   0  0  0  0  0  0  0  0  0  0  0  0
   -1.7480   -6.3470    0.2290 C   0  0  0  0  0  0  0  0  0  0  0  0
   -2.6140   -5.3690   -0.2030 C   0  0  0  0  0  0  0  0  0  0  0  0
   -2.1380   -4.2570   -0.8680 C   0  0  0  0  0  0  0  0  0  0  0  0
   -0.7800   -4.1280   -1.0800 C   0  0  0  0  0  0  0  0  0  0  0  0
    0.0870   -5.1090   -0.6330 C   0  0  0  0  0  0  0  0  0  0  0  0
 10  9  1  0
  1 10  1  0
  2  1  1  0
  3  2  2  0
  4  3  1  0
 11  4  1  0
 12 11  2  0
 13 11  1  0
 14 13  2  0
 15 14  1  0
 16 15  2  0
 17 16  1  0
 18 17  2  0
 18 13  1  0
  5  4  2  0
  6  5  1  0
  7  5  1  0
  7  1  2  0
  6  8  1  0
M  END
> <structure>
ox2_shuffle_esm0

> <pose>
8

> <is_reference>
0

> <rmsd_to_reference_A>
6.739

> <vina_score>
-4.7

> <minimizedAffinity>
-4.78755

> <CNNscore>
0.6266194582

> <CNNaffinity>
4.2131505013

> <CNN_VS>
2.6400420666

> <CNNaffinity_variance>
0.6687614322

$$$$
ox2_shuffle_esm0_pose9


 18 19  0  0  0  0  0  0  0  0999 V2000
    3.4040   -2.7580    1.4390 C   0  0  0  0  0  0  0  0  0  0  0  0
    2.4740   -1.7880    1.0860 C   0  0  0  0  0  0  0  0  0  0  0  0
    1.3450   -2.1480    0.3930 C   0  0  0  0  0  0  0  0  0  0  0  0
    1.1160   -3.4590    0.0450 C   0  0  0  0  0  0  0  0  0  0  0  0
    2.0570   -4.4230    0.3800 C   0  0  0  0  0  0  0  0  0  0  0  0
    1.8330   -5.7120    0.0070 O   0  0  0  0  0  0  0  0  0  0  0  0
    3.1910   -4.0670    1.0840 C   0  0  0  0  0  0  0  0  0  0  0  0
    1.0577   -5.9337   -0.4702 H   0  0  0  0  0  0  0  0  0  0  0  0
    5.1390   -1.1770    2.0400 C   0  0  0  0  0  0  0  0  0  0  0  0
    4.5220   -2.4630    2.1410 O   0  0  0  0  0  0  0  0  0  0  0  0
   -0.1000   -3.8990   -0.6900 C   0  0  0  0  0  0  0  0  0  0  0  0
    0.0680   -4.5110   -1.7140 O   0  0  0  0  0  0  0  0  0  0  0  0
   -1.4900   -3.7030   -0.2320 C   0  0  0  0  0  0  0  0  0  0  0  0
   -1.7210   -2.9160    0.8960 C   0  0  0  0  0  0  0  0  0  0  0  0
   -3.0030   -2.6890    1.3440 C   0  0  0  0  0  0  0  0  0  0  0  0
   -4.0830   -3.2400    0.6850 C   0  0  0  0  0  0  0  0  0  0  0  0
   -3.8640   -4.0100   -0.4400 C   0  0  0  0  0  0  0  0  0  0  0  0
   -2.5750   -4.2260   -0.8920 C   0  0  0  0  0  0  0  0  0  0  0  0
 10  9  1  0
  1 10  1  0
  2  1  1  0
  3  2  2  0
  4  3  1  0
 11  4  1  0
 12 11  2  0
 13 11  1  0
 14 13  2  0
 15 14  1  0
 16 15  2  0
 17 16  1  0
 18 17  2  0
 18 13  1  0
  5  4  2  0
  6  5  1  0
  7  5  1  0
  7  1  2  0
  6  8  1  0
M  END
> <structure>
ox2_shuffle_esm0

> <pose>
9

> <is_reference>
0

> <rmsd_to_reference_A>
5.998

> <vina_score>
-4.6

> <minimizedAffinity>
-4.96022

> <CNNscore>
0.6672570705

> <CNNaffinity>
4.5936737061

> <CNN_VS>
3.0651612282

> <CNNaffinity_variance>
0.0704920515

$$$$
