s3_esm2_f4_dockpose6
     RDKit          3D

 20 20  0  0  0  0  0  0  0  0999 V2000
   -6.2490   -1.8540    6.3890 C   0  0  0  0  0  0  0  0  0  0  0  0
   -5.6840   -1.3260    5.0670 C   0  0  0  0  0  0  0  0  0  0  0  0
   -4.2380   -0.9280    5.2300 C   0  0  0  0  0  0  0  0  0  0  0  0
   -4.0050   -0.2800    6.5660 C   0  0  0  0  0  0  0  0  0  0  0  0
   -2.7150   -0.7720    7.2080 C   0  0  2  0  0  0  0  0  0  0  0  0
   -1.9160    0.4100    7.7040 C   0  0  0  0  0  0  0  0  0  0  0  0
   -1.8110    1.5440    6.7270 C   0  0  0  0  0  0  0  0  0  0  0  0
   -1.9670   -1.5000    6.2520 O   0  0  0  0  0  0  0  0  0  0  0  0
   -0.7500   -1.9930    6.6000 C   0  0  0  0  0  0  0  0  0  0  0  0
    0.2670   -1.5660    6.1250 O   0  0  0  0  0  0  0  0  0  0  0  0
   -0.7810   -3.0890    7.5640 C   0  0  0  0  0  0  0  0  0  0  0  0
   -1.1010   -4.3210    7.1860 C   0  0  0  0  0  0  0  0  0  0  0  0
   -0.9510   -5.5050    8.0600 C   0  0  0  0  0  0  0  0  0  0  0  0
   -1.7390   -5.6730    9.1800 C   0  0  0  0  0  0  0  0  0  0  0  0
   -1.5530   -6.7730    9.9970 C   0  0  0  0  0  0  0  0  0  0  0  0
   -0.5940   -7.7000    9.7140 C   0  0  0  0  0  0  0  0  0  0  0  0
   -0.4350   -8.7550   10.5420 O   0  0  0  0  0  0  0  0  0  0  0  0
   -1.2390   -9.9110   10.3750 C   0  0  0  0  0  0  0  0  0  0  0  0
    0.1900   -7.5370    8.5910 C   0  0  0  0  0  0  0  0  0  0  0  0
    0.0050   -6.4420    7.7720 C   0  0  0  0  0  0  0  0  0  0  0  0
  2  1  1  0
  3  2  1  0
  4  3  1  0
  5  4  1  6
  6  5  1  0
  7  6  1  0
  8  5  1  0
  9  8  1  0
 10  9  2  0
 11  9  1  0
 12 11  2  3
 13 12  1  0
 14 13  1  0
 15 14  2  0
 16 15  1  0
 17 16  1  0
 18 17  1  0
 19 16  2  0
 20 19  1  0
 20 13  2  0
M  END
$$$$
