bg33_4_ligand
     RDKit          3D

 44 44  0  0  0  0  0  0  0  0999 V2000
    0.1779   -9.6816    2.5210 C   0  0  0  0  0  0  0  0  0  0  0  0
   -0.8755   -9.8572    3.5803 C   0  0  0  0  0  0  0  0  0  0  0  0
   -2.0545   -8.8983    3.4316 C   0  0  0  0  0  0  0  0  0  0  0  0
   -2.9874   -8.9511    4.6143 C   0  0  0  0  0  0  0  0  0  0  0  0
   -4.3890   -8.2751    4.2473 C   0  0  1  0  0  0  0  0  0  0  0  0
   -5.0350   -7.4449    5.3945 C   0  0  0  0  0  0  0  0  0  0  0  0
   -5.7351   -8.3633    6.4482 C   0  0  0  0  0  0  0  0  0  0  0  0
   -4.1800   -7.2934    3.2893 O   0  0  0  0  0  0  0  0  0  0  0  0
   -5.1879   -7.0785    2.2474 C   0  0  0  0  0  0  0  0  0  0  0  0
   -6.3628   -7.5344    2.3899 O   0  0  0  0  0  0  0  0  0  0  0  0
   -4.7919   -6.1982    1.1369 C   0  0  0  0  0  0  0  0  0  0  0  0
   -3.3972   -5.9036    0.9744 C   0  0  0  0  0  0  0  0  0  0  0  0
   -2.9264   -4.9189   -0.0841 C   0  0  0  0  0  0  0  0  0  0  0  0
   -3.5880   -4.7400   -1.2802 C   0  0  0  0  0  0  0  0  0  0  0  0
   -3.1203   -3.7976   -2.2597 C   0  0  0  0  0  0  0  0  0  0  0  0
   -1.9834   -2.9999   -2.0396 C   0  0  0  0  0  0  0  0  0  0  0  0
   -1.5208   -2.0391   -2.9167 O   0  0  0  0  0  0  0  0  0  0  0  0
   -2.2744   -1.7861   -4.1295 C   0  0  0  0  0  0  0  0  0  0  0  0
   -1.3439   -3.1882   -0.8166 C   0  0  0  0  0  0  0  0  0  0  0  0
   -1.8071   -4.1042    0.1372 C   0  0  0  0  0  0  0  0  0  0  0  0
    0.3904  -10.6531    2.0508 H   0  0  0  0  0  0  0  0  0  0  0  0
   -0.1832   -8.9761    1.7582 H   0  0  0  0  0  0  0  0  0  0  0  0
    1.0968   -9.2874    2.9794 H   0  0  0  0  0  0  0  0  0  0  0  0
   -1.2559  -10.8878    3.5256 H   0  0  0  0  0  0  0  0  0  0  0  0
   -0.4006   -9.6384    4.5481 H   0  0  0  0  0  0  0  0  0  0  0  0
   -1.6668   -7.8736    3.3323 H   0  0  0  0  0  0  0  0  0  0  0  0
   -2.6238   -9.2006    2.5402 H   0  0  0  0  0  0  0  0  0  0  0  0
   -3.1542  -10.0006    4.8981 H   0  0  0  0  0  0  0  0  0  0  0  0
   -2.5339   -8.4013    5.4521 H   0  0  0  0  0  0  0  0  0  0  0  0
   -5.0251   -9.1252    3.9603 H   0  0  0  0  0  0  0  0  0  0  0  0
   -4.2506   -6.8596    5.8967 H   0  0  0  0  0  0  0  0  0  0  0  0
   -5.7972   -6.7854    4.9537 H   0  0  0  0  0  0  0  0  0  0  0  0
   -5.8139   -9.3852    6.0490 H   0  0  0  0  0  0  0  0  0  0  0  0
   -5.1425   -8.3762    7.3747 H   0  0  0  0  0  0  0  0  0  0  0  0
   -6.7418   -7.9746    6.6622 H   0  0  0  0  0  0  0  0  0  0  0  0
   -5.5428   -5.7783    0.4516 H   0  0  0  0  0  0  0  0  0  0  0  0
   -2.6590   -6.3967    1.6240 H   0  0  0  0  0  0  0  0  0  0  0  0
   -4.4921   -5.3305   -1.4894 H   0  0  0  0  0  0  0  0  0  0  0  0
   -3.6675   -3.6975   -3.2086 H   0  0  0  0  0  0  0  0  0  0  0  0
   -2.7522   -2.7182   -4.4654 H   0  0  0  0  0  0  0  0  0  0  0  0
   -3.0471   -1.0291   -3.9297 H   0  0  0  0  0  0  0  0  0  0  0  0
   -1.5953   -1.4191   -4.9132 H   0  0  0  0  0  0  0  0  0  0  0  0
   -0.4437   -2.5973   -0.5917 H   0  0  0  0  0  0  0  0  0  0  0  0
   -1.2729   -4.1872    1.0950 H   0  0  0  0  0  0  0  0  0  0  0  0
  2  1  1  0
  3  2  1  0
  4  3  1  0
  5  4  1  0
  6  5  1  0
  7  6  1  0
  8  5  1  0
  9  8  1  0
 10  9  2  0
 11  9  1  0
 12 11  2  3
 13 12  1  0
 14 13  1  0
 15 14  2  0
 16 15  1  0
 17 16  1  0
 18 17  1  0
 19 16  2  0
 20 19  1  0
 20 13  2  0
  1 21  1  0
  1 22  1  0
  1 23  1  0
  2 24  1  0
  2 25  1  0
  3 26  1  0
  3 27  1  0
  4 28  1  0
  4 29  1  0
  5 30  1  6
  6 31  1  0
  6 32  1  0
  7 33  1  0
  7 34  1  0
  7 35  1  0
 11 36  1  0
 12 37  1  0
 14 38  1  0
 15 39  1  0
 18 40  1  0
 18 41  1  0
 18 42  1  0
 19 43  1  0
 20 44  1  0
M  END
$$$$
