bg33_4_ligand
 OpenBabel10092621173D

 20 20  0  0  1  0  0  0  0  0999 V2000
   -1.7990   -3.7240    0.9890 C   0  0  0  0  0  0  0  0  0  0  0  0
   -1.8760   -2.5500    0.5170 O   0  0  0  0  0  0  0  0  0  0  0  0
   -0.8210   -4.7200    0.5230 C   0  0  0  0  0  3  0  0  0  0  0  0
   -1.1290   -5.4630   -0.6660 C   0  0  0  0  0  3  0  0  0  0  0  0
   -0.2160   -6.5800   -1.1460 C   0  0  0  0  0  0  0  0  0  0  0  0
    1.0950   -6.3630   -1.5100 C   0  0  0  0  0  3  0  0  0  0  0  0
    1.9350   -7.4410   -1.9570 C   0  0  0  0  0  3  0  0  0  0  0  0
    1.4700   -8.7670   -2.0230 C   0  0  0  0  0  0  0  0  0  0  0  0
    0.1480   -8.9600   -1.6330 C   0  0  0  0  0  3  0  0  0  0  0  0
   -0.6650   -7.9070   -1.1930 C   0  0  0  0  0  3  0  0  0  0  0  0
    2.2460   -9.8490   -2.3880 O   0  0  0  0  0  0  0  0  0  0  0  0
    1.8270  -11.1740   -1.9740 C   0  0  0  0  0  1  0  0  0  0  0  0
   -2.6000   -4.1070    2.1550 O   0  0  0  0  0  0  0  0  0  0  0  0
   -3.9630   -4.3220    2.0030 C   0  0  2  0  0  3  0  0  0  0  0  0
   -4.5050   -3.7960    3.3640 C   0  0  0  0  0  2  0  0  0  0  0  0
   -6.0350   -4.0720    3.5220 C   0  0  0  0  0  1  0  0  0  0  0  0
   -4.2170   -5.8780    1.7340 C   0  0  0  0  0  2  0  0  0  0  0  0
   -3.4330   -6.7140    2.7120 C   0  0  0  0  0  2  0  0  0  0  0  0
   -2.0700   -8.8440    2.8820 C   0  0  0  0  0  1  0  0  0  0  0  0
   -2.4890   -7.6900    2.0150 C   0  0  0  0  0  2  0  0  0  0  0  0
  1 13  1  0  0  0  0
  2  1  2  0  0  0  0
  3  1  1  0  0  0  0
  4  3  2  0  0  0  0
  5  4  1  0  0  0  0
  6  5  2  0  0  0  0
  7  6  1  0  0  0  0
  8  7  2  0  0  0  0
  8  9  1  0  0  0  0
  9 10  2  0  0  0  0
 10  5  1  0  0  0  0
 11  8  1  0  0  0  0
 11 12  1  0  0  0  0
 14 17  1  1  0  0  0
 14 13  1  0  0  0  0
 14 15  1  0  0  0  0
 15 16  1  0  0  0  0
 17 18  1  0  0  0  0
 20 18  1  0  0  0  0
 20 19  1  0  0  0  0
M  END
>  <MODEL>
1

>  <REMARK>
 VINA RESULT:      -4.2      0.000      0.000
  Name = bg33_4_ligand
  12 active torsions:
  status: ('A' for Active; 'I' for Inactive)
    1  A    between atoms: C_1  and  C_2
    2  A    between atoms: C_2  and  C_3
    3  A    between atoms: C_3  and  C_4
    4  A    between atoms: C_4  and  C_5
    5  A    between atoms: C_5  and  C_6
    6  A    between atoms: C_5  and  O_8
    7  A    between atoms: C_6  and  C_7
    8  A    between atoms: O_8  and  C_9
    9  A    between atoms: C_9  and  C_11
   10  A    between atoms: C_12  and  C_13
   11  A    between atoms: C_16  and  O_17
   12  A    between atoms: O_17  and  C_18
                            x       y       z     vdW  Elec       q    Type
                         _______ _______ _______ _____ _____    ______ ____

>  <TORSDO>
F 9

$$$$
bg33_4_ligand
 OpenBabel10092621173D

 20 20  0  0  1  0  0  0  0  0999 V2000
   -4.2320   -4.4890    0.9390 C   0  0  0  0  0  0  0  0  0  0  0  0
   -4.8980   -5.4640    0.4750 O   0  0  0  0  0  0  0  0  0  0  0  0
   -4.3030   -4.0580    2.3440 C   0  0  0  0  0  3  0  0  0  0  0  0
   -3.9670   -5.0140    3.3600 C   0  0  0  0  0  3  0  0  0  0  0  0
   -4.1200   -4.6710    4.8330 C   0  0  0  0  0  0  0  0  0  0  0  0
   -4.7060   -3.5010    5.2680 C   0  0  0  0  0  3  0  0  0  0  0  0
   -4.8390   -3.2060    6.6680 C   0  0  0  0  0  3  0  0  0  0  0  0
   -4.4010   -4.1010    7.6610 C   0  0  0  0  0  0  0  0  0  0  0  0
   -3.8300   -5.2830    7.1950 C   0  0  0  0  0  3  0  0  0  0  0  0
   -3.7070   -5.5680    5.8290 C   0  0  0  0  0  3  0  0  0  0  0  0
   -4.5550   -3.9000    9.0180 O   0  0  0  0  0  0  0  0  0  0  0  0
   -3.5380   -4.4120    9.9160 C   0  0  0  0  0  1  0  0  0  0  0  0
   -3.2220   -3.8230    0.1120 O   0  0  0  0  0  0  0  0  0  0  0  0
   -2.0930   -3.2870    0.7160 C   0  0  2  0  0  3  0  0  0  0  0  0
   -1.6690   -2.2180   -0.3330 C   0  0  0  0  0  2  0  0  0  0  0  0
   -2.8760   -1.3260   -0.7700 C   0  0  0  0  0  1  0  0  0  0  0  0
   -1.0270   -4.4550    0.9550 C   0  0  0  0  0  2  0  0  0  0  0  0
   -0.1100   -4.5780   -0.2340 C   0  0  0  0  0  2  0  0  0  0  0  0
    1.3290   -6.3760   -1.2950 C   0  0  0  0  0  1  0  0  0  0  0  0
   -0.0270   -6.0110   -0.7570 C   0  0  0  0  0  2  0  0  0  0  0  0
  1  3  1  0  0  0  0
  2  1  2  0  0  0  0
  3  4  2  0  0  0  0
  4  5  1  0  0  0  0
  5  6  2  0  0  0  0
  5 10  1  0  0  0  0
  6  7  1  0  0  0  0
  7  8  2  0  0  0  0
  8 11  1  0  0  0  0
  9  8  1  0  0  0  0
 10  9  2  0  0  0  0
 11 12  1  0  0  0  0
 13 14  1  0  0  0  0
 13  1  1  0  0  0  0
 14 15  1  6  0  0  0
 14 17  1  0  0  0  0
 16 15  1  0  0  0  0
 18 17  1  0  0  0  0
 19 20  1  0  0  0  0
 20 18  1  0  0  0  0
M  END
>  <MODEL>
2

>  <REMARK>
 VINA RESULT:      -4.2      3.102      7.918
  Name = bg33_4_ligand
  12 active torsions:
  status: ('A' for Active; 'I' for Inactive)
    1  A    between atoms: C_1  and  C_2
    2  A    between atoms: C_2  and  C_3
    3  A    between atoms: C_3  and  C_4
    4  A    between atoms: C_4  and  C_5
    5  A    between atoms: C_5  and  C_6
    6  A    between atoms: C_5  and  O_8
    7  A    between atoms: C_6  and  C_7
    8  A    between atoms: O_8  and  C_9
    9  A    between atoms: C_9  and  C_11
   10  A    between atoms: C_12  and  C_13
   11  A    between atoms: C_16  and  O_17
   12  A    between atoms: O_17  and  C_18
                            x       y       z     vdW  Elec       q    Type
                         _______ _______ _______ _____ _____    ______ ____

>  <TORSDO>
F 9

$$$$
bg33_4_ligand
 OpenBabel10092621173D

 20 20  0  0  1  0  0  0  0  0999 V2000
   -3.2360    0.1070   -5.8590 C   0  0  0  0  0  0  0  0  0  0  0  0
   -2.6080   -0.3320   -6.8690 O   0  0  0  0  0  0  0  0  0  0  0  0
   -2.9340   -0.3020   -4.4780 C   0  0  0  0  0  3  0  0  0  0  0  0
   -2.6030   -1.6780   -4.2390 C   0  0  0  0  0  3  0  0  0  0  0  0
   -2.3830   -2.1930   -2.8260 C   0  0  0  0  0  0  0  0  0  0  0  0
   -2.3900   -3.5360   -2.5140 C   0  0  0  0  0  3  0  0  0  0  0  0
   -2.1750   -3.9920   -1.1680 C   0  0  0  0  0  3  0  0  0  0  0  0
   -1.9260   -3.0990   -0.1110 C   0  0  0  0  0  0  0  0  0  0  0  0
   -1.9060   -1.7500   -0.4570 C   0  0  0  0  0  3  0  0  0  0  0  0
   -2.1110   -1.3100   -1.7710 C   0  0  0  0  0  3  0  0  0  0  0  0
   -1.6550   -3.4810    1.1870 O   0  0  0  0  0  0  0  0  0  0  0  0
   -2.6500   -4.2520    1.9070 C   0  0  0  0  0  1  0  0  0  0  0  0
   -4.2200    1.1820   -6.0100 O   0  0  0  0  0  0  0  0  0  0  0  0
   -4.0830    2.3410   -5.2600 C   0  0  2  0  0  3  0  0  0  0  0  0
   -5.5680    2.6660   -4.9290 C   0  0  0  0  0  2  0  0  0  0  0  0
   -5.9360    2.2620   -3.4650 C   0  0  0  0  0  1  0  0  0  0  0  0
   -3.3340    3.4460   -6.1410 C   0  0  0  0  0  2  0  0  0  0  0  0
   -1.8860    3.5460   -5.7360 C   0  0  0  0  0  2  0  0  0  0  0  0
   -1.4950    2.8850   -8.1520 C   0  0  0  0  0  1  0  0  0  0  0  0
   -0.9530    2.8870   -6.7500 C   0  0  0  0  0  2  0  0  0  0  0  0
  1  3  1  0  0  0  0
  2  1  2  0  0  0  0
  3  4  2  0  0  0  0
  4  5  1  0  0  0  0
  5  6  2  0  0  0  0
  5 10  1  0  0  0  0
  6  7  1  0  0  0  0
  7  8  2  0  0  0  0
  8 11  1  0  0  0  0
  9  8  1  0  0  0  0
 10  9  2  0  0  0  0
 11 12  1  0  0  0  0
 13  1  1  0  0  0  0
 13 14  1  0  0  0  0
 14 17  1  6  0  0  0
 14 15  1  0  0  0  0
 15 16  1  0  0  0  0
 17 18  1  0  0  0  0
 19 20  1  0  0  0  0
 20 18  1  0  0  0  0
M  END
>  <MODEL>
3

>  <REMARK>
 VINA RESULT:      -4.2      7.024      9.371
  Name = bg33_4_ligand
  12 active torsions:
  status: ('A' for Active; 'I' for Inactive)
    1  A    between atoms: C_1  and  C_2
    2  A    between atoms: C_2  and  C_3
    3  A    between atoms: C_3  and  C_4
    4  A    between atoms: C_4  and  C_5
    5  A    between atoms: C_5  and  C_6
    6  A    between atoms: C_5  and  O_8
    7  A    between atoms: C_6  and  C_7
    8  A    between atoms: O_8  and  C_9
    9  A    between atoms: C_9  and  C_11
   10  A    between atoms: C_12  and  C_13
   11  A    between atoms: C_16  and  O_17
   12  A    between atoms: O_17  and  C_18
                            x       y       z     vdW  Elec       q    Type
                         _______ _______ _______ _____ _____    ______ ____

>  <TORSDO>
F 9

$$$$
bg33_4_ligand
 OpenBabel10092621173D

 20 20  0  0  1  0  0  0  0  0999 V2000
    1.6290   -8.2050   -2.2550 C   0  0  0  0  0  0  0  0  0  0  0  0
    2.0980   -9.3610   -2.0280 O   0  0  0  0  0  0  0  0  0  0  0  0
    0.5320   -7.6100   -1.4750 C   0  0  0  0  0  3  0  0  0  0  0  0
    0.6720   -6.2500   -1.0420 C   0  0  0  0  0  3  0  0  0  0  0  0
   -0.3720   -5.6050   -0.1440 C   0  0  0  0  0  0  0  0  0  0  0  0
   -0.5010   -4.2390   -0.0170 C   0  0  0  0  0  3  0  0  0  0  0  0
   -1.5010   -3.6590    0.8380 C   0  0  0  0  0  3  0  0  0  0  0  0
   -2.4080   -4.4510    1.5650 C   0  0  0  0  0  0  0  0  0  0  0  0
   -2.2670   -5.8270    1.4040 C   0  0  0  0  0  3  0  0  0  0  0  0
   -1.2930   -6.3870    0.5660 C   0  0  0  0  0  3  0  0  0  0  0  0
   -3.4250   -3.9510    2.3540 O   0  0  0  0  0  0  0  0  0  0  0  0
   -4.7910   -4.0660    1.8820 C   0  0  0  0  0  1  0  0  0  0  0  0
    2.2740   -7.3230   -3.2320 O   0  0  0  0  0  0  0  0  0  0  0  0
    1.7830   -7.2710   -4.5290 C   0  0  2  0  0  3  0  0  0  0  0  0
    2.8090   -8.1720   -5.2760 C   0  0  0  0  0  2  0  0  0  0  0  0
    4.2810   -7.7320   -4.9900 C   0  0  0  0  0  1  0  0  0  0  0  0
    1.7510   -5.7470   -5.0120 C   0  0  0  0  0  2  0  0  0  0  0  0
    0.3580   -5.3620   -5.4400 C   0  0  0  0  0  2  0  0  0  0  0  0
   -1.5390   -5.0750   -3.7840 C   0  0  0  0  0  1  0  0  0  0  0  0
   -0.7170   -6.0390   -4.5930 C   0  0  0  0  0  2  0  0  0  0  0  0
  1  2  2  0  0  0  0
  1  3  1  0  0  0  0
  3  4  2  0  0  0  0
  4  5  1  0  0  0  0
  5  6  2  0  0  0  0
  5 10  1  0  0  0  0
  6  7  1  0  0  0  0
  7  8  2  0  0  0  0
  8 11  1  0  0  0  0
  9  8  1  0  0  0  0
 10  9  2  0  0  0  0
 12 11  1  0  0  0  0
 13  1  1  0  0  0  0
 14 15  1  6  0  0  0
 14 13  1  0  0  0  0
 15 16  1  0  0  0  0
 17 14  1  0  0  0  0
 18 17  1  0  0  0  0
 18 20  1  0  0  0  0
 20 19  1  0  0  0  0
M  END
>  <MODEL>
4

>  <REMARK>
 VINA RESULT:      -4.2      2.302      7.777
  Name = bg33_4_ligand
  12 active torsions:
  status: ('A' for Active; 'I' for Inactive)
    1  A    between atoms: C_1  and  C_2
    2  A    between atoms: C_2  and  C_3
    3  A    between atoms: C_3  and  C_4
    4  A    between atoms: C_4  and  C_5
    5  A    between atoms: C_5  and  C_6
    6  A    between atoms: C_5  and  O_8
    7  A    between atoms: C_6  and  C_7
    8  A    between atoms: O_8  and  C_9
    9  A    between atoms: C_9  and  C_11
   10  A    between atoms: C_12  and  C_13
   11  A    between atoms: C_16  and  O_17
   12  A    between atoms: O_17  and  C_18
                            x       y       z     vdW  Elec       q    Type
                         _______ _______ _______ _____ _____    ______ ____

>  <TORSDO>
F 9

$$$$
bg33_4_ligand
 OpenBabel10092621173D

 20 20  0  0  1  0  0  0  0  0999 V2000
   -2.9640   -6.9730    2.4470 C   0  0  0  0  0  0  0  0  0  0  0  0
   -3.3110   -7.9480    3.1800 O   0  0  0  0  0  0  0  0  0  0  0  0
   -1.7640   -6.9880    1.5970 C   0  0  0  0  0  3  0  0  0  0  0  0
   -1.9450   -7.0500    0.1750 C   0  0  0  0  0  3  0  0  0  0  0  0
   -0.7510   -7.1750   -0.7590 C   0  0  0  0  0  0  0  0  0  0  0  0
    0.2560   -6.2360   -0.8060 C   0  0  0  0  0  3  0  0  0  0  0  0
    1.3750   -6.3830   -1.6980 C   0  0  0  0  0  3  0  0  0  0  0  0
    1.5080   -7.4980   -2.5450 C   0  0  0  0  0  0  0  0  0  0  0  0
    0.4860   -8.4400   -2.4630 C   0  0  0  0  0  3  0  0  0  0  0  0
   -0.6000   -8.2940   -1.5890 C   0  0  0  0  0  3  0  0  0  0  0  0
    2.5860   -7.7230   -3.3770 O   0  0  0  0  0  0  0  0  0  0  0  0
    2.7690   -9.0490   -3.9330 C   0  0  0  0  0  1  0  0  0  0  0  0
   -3.8460   -5.8130    2.2940 O   0  0  0  0  0  0  0  0  0  0  0  0
   -3.3520   -4.5430    2.5550 C   0  0  2  0  0  3  0  0  0  0  0  0
   -4.3680   -4.0360    3.6190 C   0  0  0  0  0  2  0  0  0  0  0  0
   -3.9060   -4.3860    5.0710 C   0  0  0  0  0  1  0  0  0  0  0  0
   -3.3300   -3.7030    1.1940 C   0  0  0  0  0  2  0  0  0  0  0  0
   -1.9110   -3.3980    0.7890 C   0  0  0  0  0  2  0  0  0  0  0  0
   -1.8970   -1.5120   -0.9050 C   0  0  0  0  0  1  0  0  0  0  0  0
   -1.8000   -2.9960   -0.6800 C   0  0  0  0  0  2  0  0  0  0  0  0
  1  2  2  0  0  0  0
  3  1  1  0  0  0  0
  4  3  2  0  0  0  0
  5  4  1  0  0  0  0
  6  5  1  0  0  0  0
  7  6  2  0  0  0  0
  8  9  2  0  0  0  0
  8  7  1  0  0  0  0
  9 10  1  0  0  0  0
 10  5  2  0  0  0  0
 11  8  1  0  0  0  0
 12 11  1  0  0  0  0
 13  1  1  0  0  0  0
 13 14  1  0  0  0  0
 14 17  1  6  0  0  0
 14 15  1  0  0  0  0
 15 16  1  0  0  0  0
 18 17  1  0  0  0  0
 19 20  1  0  0  0  0
 20 18  1  0  0  0  0
M  END
>  <MODEL>
5

>  <REMARK>
 VINA RESULT:      -4.2      1.718      3.303
  Name = bg33_4_ligand
  12 active torsions:
  status: ('A' for Active; 'I' for Inactive)
    1  A    between atoms: C_1  and  C_2
    2  A    between atoms: C_2  and  C_3
    3  A    between atoms: C_3  and  C_4
    4  A    between atoms: C_4  and  C_5
    5  A    between atoms: C_5  and  C_6
    6  A    between atoms: C_5  and  O_8
    7  A    between atoms: C_6  and  C_7
    8  A    between atoms: O_8  and  C_9
    9  A    between atoms: C_9  and  C_11
   10  A    between atoms: C_12  and  C_13
   11  A    between atoms: C_16  and  O_17
   12  A    between atoms: O_17  and  C_18
                            x       y       z     vdW  Elec       q    Type
                         _______ _______ _______ _____ _____    ______ ____

>  <TORSDO>
F 9

$$$$
bg33_4_ligand
 OpenBabel10092621173D

 20 20  0  0  1  0  0  0  0  0999 V2000
   -3.1800   -0.1200   -6.1160 C   0  0  0  0  0  0  0  0  0  0  0  0
   -3.3150   -0.5620   -7.2970 O   0  0  0  0  0  0  0  0  0  0  0  0
   -3.1640   -0.9860   -4.9260 C   0  0  0  0  0  3  0  0  0  0  0  0
   -3.0350   -0.3620   -3.6400 C   0  0  0  0  0  3  0  0  0  0  0  0
   -2.9060   -1.1990   -2.3770 C   0  0  0  0  0  0  0  0  0  0  0  0
   -3.8960   -2.0580   -1.9500 C   0  0  0  0  0  3  0  0  0  0  0  0
   -3.7430   -2.8380   -0.7520 C   0  0  0  0  0  3  0  0  0  0  0  0
   -2.5730   -2.7830    0.0260 C   0  0  0  0  0  0  0  0  0  0  0  0
   -1.5820   -1.9220   -0.4380 C   0  0  0  0  0  3  0  0  0  0  0  0
   -1.7340   -1.1660   -1.6080 C   0  0  0  0  0  3  0  0  0  0  0  0
   -2.3450   -3.5510    1.1510 O   0  0  0  0  0  0  0  0  0  0  0  0
   -1.2460   -4.4960    1.1350 C   0  0  0  0  0  1  0  0  0  0  0  0
   -2.8750    1.2950   -5.8860 O   0  0  0  0  0  0  0  0  0  0  0  0
   -3.7250    2.2660   -6.3940 C   0  0  2  0  0  3  0  0  0  0  0  0
   -3.0010    3.5680   -5.9430 C   0  0  0  0  0  2  0  0  0  0  0  0
   -1.4830    3.3170   -5.6640 C   0  0  0  0  0  1  0  0  0  0  0  0
   -5.1840    2.0590   -5.7720 C   0  0  0  0  0  2  0  0  0  0  0  0
   -5.2470    2.6350   -4.3810 C   0  0  0  0  0  2  0  0  0  0  0  0
   -5.6710    1.5250   -2.1410 C   0  0  0  0  0  1  0  0  0  0  0  0
   -6.2340    1.8870   -3.4880 C   0  0  0  0  0  2  0  0  0  0  0  0
  1 13  1  0  0  0  0
  1  3  1  0  0  0  0
  2  1  2  0  0  0  0
  3  4  2  0  0  0  0
  4  5  1  0  0  0  0
  5  6  2  0  0  0  0
  5 10  1  0  0  0  0
  6  7  1  0  0  0  0
  7  8  2  0  0  0  0
  8 11  1  0  0  0  0
  9  8  1  0  0  0  0
 10  9  2  0  0  0  0
 12 11  1  0  0  0  0
 14 15  1  1  0  0  0
 14 13  1  0  0  0  0
 14 17  1  0  0  0  0
 15 16  1  0  0  0  0
 17 18  1  0  0  0  0
 18 20  1  0  0  0  0
 20 19  1  0  0  0  0
M  END
>  <MODEL>
6

>  <REMARK>
 VINA RESULT:      -4.1      6.761      9.230
  Name = bg33_4_ligand
  12 active torsions:
  status: ('A' for Active; 'I' for Inactive)
    1  A    between atoms: C_1  and  C_2
    2  A    between atoms: C_2  and  C_3
    3  A    between atoms: C_3  and  C_4
    4  A    between atoms: C_4  and  C_5
    5  A    between atoms: C_5  and  C_6
    6  A    between atoms: C_5  and  O_8
    7  A    between atoms: C_6  and  C_7
    8  A    between atoms: O_8  and  C_9
    9  A    between atoms: C_9  and  C_11
   10  A    between atoms: C_12  and  C_13
   11  A    between atoms: C_16  and  O_17
   12  A    between atoms: O_17  and  C_18
                            x       y       z     vdW  Elec       q    Type
                         _______ _______ _______ _____ _____    ______ ____

>  <TORSDO>
F 9

$$$$
bg33_4_ligand
 OpenBabel10092621173D

 20 20  0  0  1  0  0  0  0  0999 V2000
   -1.8210   -3.4200    0.3050 C   0  0  0  0  0  0  0  0  0  0  0  0
   -1.6660   -2.1750    0.1200 O   0  0  0  0  0  0  0  0  0  0  0  0
   -2.1300   -4.0100    1.6170 C   0  0  0  0  0  3  0  0  0  0  0  0
   -3.5020   -4.0450    2.0340 C   0  0  0  0  0  3  0  0  0  0  0  0
   -3.8840   -4.5420    3.4190 C   0  0  0  0  0  0  0  0  0  0  0  0
   -4.2350   -3.6900    4.4450 C   0  0  0  0  0  3  0  0  0  0  0  0
   -4.5940   -4.1910    5.7430 C   0  0  0  0  0  3  0  0  0  0  0  0
   -4.6270   -5.5690    6.0250 C   0  0  0  0  0  0  0  0  0  0  0  0
   -4.2860   -6.4070    4.9670 C   0  0  0  0  0  3  0  0  0  0  0  0
   -3.9410   -5.9140    3.7020 C   0  0  0  0  0  3  0  0  0  0  0  0
   -5.0200   -6.1100    7.2330 O   0  0  0  0  0  0  0  0  0  0  0  0
   -4.1360   -5.9760    8.3750 C   0  0  0  0  0  1  0  0  0  0  0  0
   -1.8470   -4.3400   -0.8360 O   0  0  0  0  0  0  0  0  0  0  0  0
   -1.5640   -5.6830   -0.6350 C   0  0  2  0  0  3  0  0  0  0  0  0
   -0.5050   -5.9380   -1.7460 C   0  0  0  0  0  2  0  0  0  0  0  0
    0.9250   -6.1380   -1.1470 C   0  0  0  0  0  1  0  0  0  0  0  0
   -2.9130   -6.5280   -0.7850 C   0  0  0  0  0  2  0  0  0  0  0  0
   -3.0470   -7.5090    0.3500 C   0  0  0  0  0  2  0  0  0  0  0  0
   -1.8940   -8.5430    2.3570 C   0  0  0  0  0  1  0  0  0  0  0  0
   -1.7870   -7.5780    1.2090 C   0  0  0  0  0  2  0  0  0  0  0  0
  1  3  1  0  0  0  0
  2  1  2  0  0  0  0
  3  4  2  0  0  0  0
  4  5  1  0  0  0  0
  5 10  2  0  0  0  0
  5  6  1  0  0  0  0
  6  7  2  0  0  0  0
  7  8  1  0  0  0  0
  8 11  1  0  0  0  0
  9  8  2  0  0  0  0
 10  9  1  0  0  0  0
 11 12  1  0  0  0  0
 13 14  1  0  0  0  0
 13  1  1  0  0  0  0
 14 15  1  6  0  0  0
 15 16  1  0  0  0  0
 17 14  1  0  0  0  0
 17 18  1  0  0  0  0
 18 20  1  0  0  0  0
 20 19  1  0  0  0  0
M  END
>  <MODEL>
7

>  <REMARK>
 VINA RESULT:      -4.1      2.523      6.901
  Name = bg33_4_ligand
  12 active torsions:
  status: ('A' for Active; 'I' for Inactive)
    1  A    between atoms: C_1  and  C_2
    2  A    between atoms: C_2  and  C_3
    3  A    between atoms: C_3  and  C_4
    4  A    between atoms: C_4  and  C_5
    5  A    between atoms: C_5  and  C_6
    6  A    between atoms: C_5  and  O_8
    7  A    between atoms: C_6  and  C_7
    8  A    between atoms: O_8  and  C_9
    9  A    between atoms: C_9  and  C_11
   10  A    between atoms: C_12  and  C_13
   11  A    between atoms: C_16  and  O_17
   12  A    between atoms: O_17  and  C_18
                            x       y       z     vdW  Elec       q    Type
                         _______ _______ _______ _____ _____    ______ ____

>  <TORSDO>
F 9

$$$$
bg33_4_ligand
 OpenBabel10092621173D

 20 20  0  0  1  0  0  0  0  0999 V2000
   -2.8470   -7.3420    1.7200 C   0  0  0  0  0  0  0  0  0  0  0  0
   -3.4890   -8.1880    1.0260 O   0  0  0  0  0  0  0  0  0  0  0  0
   -3.2650   -6.9170    3.0650 C   0  0  0  0  0  3  0  0  0  0  0  0
   -3.6510   -5.5470    3.2500 C   0  0  0  0  0  3  0  0  0  0  0  0
   -3.9920   -5.0130    4.6320 C   0  0  0  0  0  0  0  0  0  0  0  0
   -3.8330   -5.7620    5.7790 C   0  0  0  0  0  3  0  0  0  0  0  0
   -4.1620   -5.2270    7.0720 C   0  0  0  0  0  3  0  0  0  0  0  0
   -4.6380   -3.9140    7.2350 C   0  0  0  0  0  0  0  0  0  0  0  0
   -4.7720   -3.1740    6.0630 C   0  0  0  0  0  3  0  0  0  0  0  0
   -4.4460   -3.6980    4.8050 C   0  0  0  0  0  3  0  0  0  0  0  0
   -4.9140   -3.3280    8.4540 O   0  0  0  0  0  0  0  0  0  0  0  0
   -4.3420   -3.9120    9.6510 C   0  0  0  0  0  1  0  0  0  0  0  0
   -1.5450   -6.8470    1.2650 O   0  0  0  0  0  0  0  0  0  0  0  0
   -1.4910   -5.9280    0.2270 C   0  0  2  0  0  3  0  0  0  0  0  0
   -0.5920   -6.6810   -0.7960 C   0  0  0  0  0  2  0  0  0  0  0  0
    0.7780   -5.9570   -1.0040 C   0  0  0  0  0  1  0  0  0  0  0  0
   -0.8800   -4.5570    0.7770 C   0  0  0  0  0  2  0  0  0  0  0  0
   -1.8920   -3.4470    0.6590 C   0  0  0  0  0  2  0  0  0  0  0  0
   -2.5770   -1.4220   -0.7030 C   0  0  0  0  0  1  0  0  0  0  0  0
   -1.4790   -2.3920   -0.3640 C   0  0  0  0  0  2  0  0  0  0  0  0
  1  3  1  0  0  0  0
  2  1  2  0  0  0  0
  3  4  2  0  0  0  0
  4  5  1  0  0  0  0
  5 10  2  0  0  0  0
  5  6  1  0  0  0  0
  6  7  2  0  0  0  0
  7  8  1  0  0  0  0
  8 11  1  0  0  0  0
  9  8  2  0  0  0  0
 10  9  1  0  0  0  0
 11 12  1  0  0  0  0
 13  1  1  0  0  0  0
 14 15  1  6  0  0  0
 14 17  1  0  0  0  0
 14 13  1  0  0  0  0
 16 15  1  0  0  0  0
 18 17  1  0  0  0  0
 19 20  1  0  0  0  0
 20 18  1  0  0  0  0
M  END
>  <MODEL>
8

>  <REMARK>
 VINA RESULT:      -4.1      3.038      8.292
  Name = bg33_4_ligand
  12 active torsions:
  status: ('A' for Active; 'I' for Inactive)
    1  A    between atoms: C_1  and  C_2
    2  A    between atoms: C_2  and  C_3
    3  A    between atoms: C_3  and  C_4
    4  A    between atoms: C_4  and  C_5
    5  A    between atoms: C_5  and  C_6
    6  A    between atoms: C_5  and  O_8
    7  A    between atoms: C_6  and  C_7
    8  A    between atoms: O_8  and  C_9
    9  A    between atoms: C_9  and  C_11
   10  A    between atoms: C_12  and  C_13
   11  A    between atoms: C_16  and  O_17
   12  A    between atoms: O_17  and  C_18
                            x       y       z     vdW  Elec       q    Type
                         _______ _______ _______ _____ _____    ______ ____

>  <TORSDO>
F 9

$$$$
bg33_4_ligand
 OpenBabel10092621173D

 20 20  0  0  1  0  0  0  0  0999 V2000
   -2.1270   -3.9260    1.2510 C   0  0  0  0  0  0  0  0  0  0  0  0
   -1.9140   -2.8060    0.6970 O   0  0  0  0  0  0  0  0  0  0  0  0
   -1.4840   -5.1770    0.8190 C   0  0  0  0  0  3  0  0  0  0  0  0
   -0.6000   -5.1260   -0.3100 C   0  0  0  0  0  3  0  0  0  0  0  0
    0.0160   -6.3960   -0.8760 C   0  0  0  0  0  0  0  0  0  0  0  0
   -0.6680   -7.5910   -0.9330 C   0  0  0  0  0  3  0  0  0  0  0  0
   -0.0600   -8.7750   -1.4780 C   0  0  0  0  0  3  0  0  0  0  0  0
    1.2470   -8.7670   -1.9990 C   0  0  0  0  0  0  0  0  0  0  0  0
    1.9080   -7.5420   -1.9450 C   0  0  0  0  0  3  0  0  0  0  0  0
    1.3090   -6.3910   -1.4170 C   0  0  0  0  0  3  0  0  0  0  0  0
    1.8600   -9.8550   -2.5870 O   0  0  0  0  0  0  0  0  0  0  0  0
    2.7090   -9.6330   -3.7410 C   0  0  0  0  0  1  0  0  0  0  0  0
   -2.9290   -4.0050    2.4750 O   0  0  0  0  0  0  0  0  0  0  0  0
   -4.0530   -4.8180    2.5020 C   0  0  2  0  0  3  0  0  0  0  0  0
   -5.1890   -3.7680    2.3310 C   0  0  0  0  0  2  0  0  0  0  0  0
   -5.8680   -3.8750    0.9270 C   0  0  0  0  0  1  0  0  0  0  0  0
   -4.0830   -5.6210    3.8840 C   0  0  0  0  0  2  0  0  0  0  0  0
   -4.7530   -4.7980    4.9540 C   0  0  0  0  0  2  0  0  0  0  0  0
   -3.5920   -5.4600    7.1080 C   0  0  0  0  0  1  0  0  0  0  0  0
   -3.7870   -4.3950    6.0660 C   0  0  0  0  0  2  0  0  0  0  0  0
  1 13  1  0  0  0  0
  2  1  2  0  0  0  0
  3  1  1  0  0  0  0
  4  3  2  0  0  0  0
  5  4  1  0  0  0  0
  6  5  1  0  0  0  0
  7  6  2  0  0  0  0
  8  9  2  0  0  0  0
  8  7  1  0  0  0  0
  9 10  1  0  0  0  0
 10  5  2  0  0  0  0
 11  8  1  0  0  0  0
 12 11  1  0  0  0  0
 13 14  1  0  0  0  0
 14 15  1  1  0  0  0
 14 17  1  0  0  0  0
 16 15  1  0  0  0  0
 17 18  1  0  0  0  0
 18 20  1  0  0  0  0
 20 19  1  0  0  0  0
M  END
>  <MODEL>
9

>  <REMARK>
 VINA RESULT:      -4.1      1.536      2.402
  Name = bg33_4_ligand
  12 active torsions:
  status: ('A' for Active; 'I' for Inactive)
    1  A    between atoms: C_1  and  C_2
    2  A    between atoms: C_2  and  C_3
    3  A    between atoms: C_3  and  C_4
    4  A    between atoms: C_4  and  C_5
    5  A    between atoms: C_5  and  C_6
    6  A    between atoms: C_5  and  O_8
    7  A    between atoms: C_6  and  C_7
    8  A    between atoms: O_8  and  C_9
    9  A    between atoms: C_9  and  C_11
   10  A    between atoms: C_12  and  C_13
   11  A    between atoms: C_16  and  O_17
   12  A    between atoms: O_17  and  C_18
                            x       y       z     vdW  Elec       q    Type
                         _______ _______ _______ _____ _____    ______ ____

>  <TORSDO>
F 9

$$$$
