s2_esm2_control_ligand
     RDKit          3D

 44 44  0  0  0  0  0  0  0  0999 V2000
   -9.2641  -10.1881  -11.4769 C   0  0  0  0  0  0  0  0  0  0  0  0
   -7.8698   -9.7650  -11.9255 C   0  0  0  0  0  0  0  0  0  0  0  0
   -7.2395   -8.8379  -10.9290 C   0  0  0  0  0  0  0  0  0  0  0  0
   -5.8343   -8.4803  -11.3024 C   0  0  0  0  0  0  0  0  0  0  0  0
   -5.1823   -7.4947  -10.3634 C   0  0  2  0  0  0  0  0  0  0  0  0
   -3.6984   -7.3633  -10.6991 C   0  0  0  0  0  0  0  0  0  0  0  0
   -3.2614   -5.9524  -11.0524 C   0  0  0  0  0  0  0  0  0  0  0  0
   -5.3025   -7.9557   -9.0287 O   0  0  0  0  0  0  0  0  0  0  0  0
   -6.0544   -7.2588   -8.1521 C   0  0  0  0  0  0  0  0  0  0  0  0
   -6.5920   -6.2335   -8.4763 O   0  0  0  0  0  0  0  0  0  0  0  0
   -6.1787   -7.8574   -6.7986 C   0  0  0  0  0  0  0  0  0  0  0  0
   -6.9566   -7.2232   -5.8768 C   0  0  0  0  0  0  0  0  0  0  0  0
   -7.1933   -7.7410   -4.5146 C   0  0  0  0  0  0  0  0  0  0  0  0
   -7.9666   -6.9833   -3.6539 C   0  0  0  0  0  0  0  0  0  0  0  0
   -8.2349   -7.4254   -2.3719 C   0  0  0  0  0  0  0  0  0  0  0  0
   -7.7376   -8.6243   -1.9319 C   0  0  0  0  0  0  0  0  0  0  0  0
   -8.0330   -9.0130   -0.6692 O   0  0  0  0  0  0  0  0  0  0  0  0
   -7.6176  -10.2913   -0.2056 C   0  0  0  0  0  0  0  0  0  0  0  0
   -6.9695   -9.3833   -2.7860 C   0  0  0  0  0  0  0  0  0  0  0  0
   -6.6984   -8.9383   -4.0738 C   0  0  0  0  0  0  0  0  0  0  0  0
   -9.8405  -10.5334  -12.3478 H   0  0  0  0  0  0  0  0  0  0  0  0
   -9.1817  -11.0047  -10.7446 H   0  0  0  0  0  0  0  0  0  0  0  0
   -9.7762   -9.3313  -11.0146 H   0  0  0  0  0  0  0  0  0  0  0  0
   -7.2396  -10.6604  -12.0317 H   0  0  0  0  0  0  0  0  0  0  0  0
   -7.9573   -9.2374  -12.8867 H   0  0  0  0  0  0  0  0  0  0  0  0
   -7.8375   -7.9162  -10.8746 H   0  0  0  0  0  0  0  0  0  0  0  0
   -7.2111   -9.3533   -9.9577 H   0  0  0  0  0  0  0  0  0  0  0  0
   -5.2331   -9.4013  -11.3093 H   0  0  0  0  0  0  0  0  0  0  0  0
   -5.8800   -7.9973  -12.2896 H   0  0  0  0  0  0  0  0  0  0  0  0
   -5.6796   -6.5195  -10.4725 H   0  0  0  0  0  0  0  0  0  0  0  0
   -3.1169   -7.6961   -9.8267 H   0  0  0  0  0  0  0  0  0  0  0  0
   -3.5208   -7.9815  -11.5915 H   0  0  0  0  0  0  0  0  0  0  0  0
   -3.2243   -5.8431  -12.1463 H   0  0  0  0  0  0  0  0  0  0  0  0
   -3.9798   -5.2310  -10.6359 H   0  0  0  0  0  0  0  0  0  0  0  0
   -2.2635   -5.7612  -10.6308 H   0  0  0  0  0  0  0  0  0  0  0  0
   -5.6549   -8.7911   -6.5460 H   0  0  0  0  0  0  0  0  0  0  0  0
   -7.4339   -6.2744   -6.1631 H   0  0  0  0  0  0  0  0  0  0  0  0
   -8.3725   -6.0188   -3.9931 H   0  0  0  0  0  0  0  0  0  0  0  0
   -8.8518   -6.8105   -1.7002 H   0  0  0  0  0  0  0  0  0  0  0  0
   -7.5106  -10.9746   -1.0610 H   0  0  0  0  0  0  0  0  0  0  0  0
   -6.6515  -10.1975    0.3119 H   0  0  0  0  0  0  0  0  0  0  0  0
   -8.3694  -10.6908    0.4910 H   0  0  0  0  0  0  0  0  0  0  0  0
   -6.5676  -10.3492   -2.4461 H   0  0  0  0  0  0  0  0  0  0  0  0
   -6.0808   -9.5534   -4.7448 H   0  0  0  0  0  0  0  0  0  0  0  0
  2  1  1  0
  3  2  1  0
  4  3  1  0
  5  4  1  0
  6  5  1  0
  7  6  1  0
  8  5  1  0
  9  8  1  0
 10  9  2  0
 11  9  1  0
 12 11  2  3
 13 12  1  0
 14 13  1  0
 15 14  2  0
 16 15  1  0
 17 16  1  0
 18 17  1  0
 19 16  2  0
 20 19  1  0
 20 13  2  0
  1 21  1  0
  1 22  1  0
  1 23  1  0
  2 24  1  0
  2 25  1  0
  3 26  1  0
  3 27  1  0
  4 28  1  0
  4 29  1  0
  5 30  1  1
  6 31  1  0
  6 32  1  0
  7 33  1  0
  7 34  1  0
  7 35  1  0
 11 36  1  0
 12 37  1  0
 14 38  1  0
 15 39  1  0
 18 40  1  0
 18 41  1  0
 18 42  1  0
 19 43  1  0
 20 44  1  0
M  END
$$$$
