s2_esm2_control_ligand
 OpenBabel10092621043D

 20 20  0  0  1  0  0  0  0  0999 V2000
   -7.3920   -6.7720    3.3100 C   0  0  0  0  0  0  0  0  0  0  0  0
   -8.3070   -7.2930    3.8910 O   0  0  0  0  0  0  0  0  0  0  0  0
   -6.9830   -7.1390    1.9310 C   0  0  0  0  0  3  0  0  0  0  0  0
   -7.9410   -7.2020    0.9630 C   0  0  0  0  0  3  0  0  0  0  0  0
   -7.6520   -7.5130   -0.4510 C   0  0  0  0  0  0  0  0  0  0  0  0
   -8.0560   -6.6050   -1.4140 C   0  0  0  0  0  3  0  0  0  0  0  0
   -7.7980   -6.8350   -2.7520 C   0  0  0  0  0  3  0  0  0  0  0  0
   -7.1370   -7.9680   -3.1480 C   0  0  0  0  0  0  0  0  0  0  0  0
   -6.7310   -8.8730   -2.1930 C   0  0  0  0  0  3  0  0  0  0  0  0
   -6.9910   -8.6430   -0.8480 C   0  0  0  0  0  3  0  0  0  0  0  0
   -6.9060   -8.1440   -4.4710 O   0  0  0  0  0  0  0  0  0  0  0  0
   -7.0630   -7.0530   -5.3690 C   0  0  0  0  0  1  0  0  0  0  0  0
   -6.6800   -5.7820    3.8840 O   0  0  0  0  0  0  0  0  0  0  0  0
   -5.9350   -4.8950    3.0680 C   0  0  1  0  0  3  0  0  0  0  0  0
   -6.7510   -3.6200    2.8670 C   0  0  0  0  0  2  0  0  0  0  0  0
   -7.1830   -3.3750    1.4310 C   0  0  0  0  0  1  0  0  0  0  0  0
   -4.6250   -4.5650    3.7400 C   0  0  0  0  0  2  0  0  0  0  0  0
   -3.8360   -5.7660    4.1580 C   0  0  0  0  0  2  0  0  0  0  0  0
   -2.8340   -7.9030    3.3500 C   0  0  0  0  0  1  0  0  0  0  0  0
   -3.2180   -6.4730    2.9890 C   0  0  0  0  0  2  0  0  0  0  0  0
  1 13  1  0  0  0  0
  1  2  2  0  0  0  0
  3  1  1  0  0  0  0
  4  3  2  0  0  0  0
  5  4  1  0  0  0  0
  6  5  2  0  0  0  0
  7  6  1  0  0  0  0
  8  7  2  0  0  0  0
  8  9  1  0  0  0  0
  9 10  2  0  0  0  0
 10  5  1  0  0  0  0
 11  8  1  0  0  0  0
 12 11  1  0  0  0  0
 14 15  1  1  0  0  0
 14 17  1  0  0  0  0
 14 13  1  0  0  0  0
 16 15  1  0  0  0  0
 17 18  1  0  0  0  0
 20 19  1  0  0  0  0
 20 18  1  0  0  0  0
M  END
>  <MODEL>
1

>  <REMARK>
 VINA RESULT:      -4.8      0.000      0.000
  Name = s2_esm2_control_ligand
  12 active torsions:
  status: ('A' for Active; 'I' for Inactive)
    1  A    between atoms: C_1  and  C_2
    2  A    between atoms: C_2  and  C_3
    3  A    between atoms: C_3  and  C_4
    4  A    between atoms: C_4  and  C_5
    5  A    between atoms: C_5  and  C_6
    6  A    between atoms: C_5  and  O_8
    7  A    between atoms: C_6  and  C_7
    8  A    between atoms: O_8  and  C_9
    9  A    between atoms: C_9  and  C_11
   10  A    between atoms: C_12  and  C_13
   11  A    between atoms: C_16  and  O_17
   12  A    between atoms: O_17  and  C_18
                            x       y       z     vdW  Elec       q    Type
                         _______ _______ _______ _____ _____    ______ ____

>  <TORSDO>
F 9

$$$$
s2_esm2_control_ligand
 OpenBabel10092621043D

 20 20  0  0  1  0  0  0  0  0999 V2000
   -7.0210   -7.1200    3.5130 C   0  0  0  0  0  0  0  0  0  0  0  0
   -7.8870   -7.6060    4.1910 O   0  0  0  0  0  0  0  0  0  0  0  0
   -6.7560   -7.5230    2.1090 C   0  0  0  0  0  3  0  0  0  0  0  0
   -6.2820   -8.7790    1.8720 C   0  0  0  0  0  3  0  0  0  0  0  0
   -6.0210   -9.3090    0.5200 C   0  0  0  0  0  0  0  0  0  0  0  0
   -6.8070   -8.8520   -0.5230 C   0  0  0  0  0  3  0  0  0  0  0  0
   -6.5980   -9.3010   -1.8140 C   0  0  0  0  0  3  0  0  0  0  0  0
   -5.6070  -10.2090   -2.0820 C   0  0  0  0  0  0  0  0  0  0  0  0
   -4.8210  -10.6650   -1.0480 C   0  0  0  0  0  3  0  0  0  0  0  0
   -5.0320  -10.2150    0.2500 C   0  0  0  0  0  3  0  0  0  0  0  0
   -5.4410  -10.6140   -3.3630 O   0  0  0  0  0  0  0  0  0  0  0  0
   -5.3160   -9.6500   -4.4010 C   0  0  0  0  0  1  0  0  0  0  0  0
   -6.2330   -6.1370    3.9950 O   0  0  0  0  0  0  0  0  0  0  0  0
   -5.6660   -5.1970    3.0990 C   0  0  1  0  0  3  0  0  0  0  0  0
   -6.5310   -3.9380    3.1050 C   0  0  0  0  0  2  0  0  0  0  0  0
   -7.2520   -3.6700    1.7960 C   0  0  0  0  0  1  0  0  0  0  0  0
   -4.2640   -4.8570    3.5400 C   0  0  0  0  0  2  0  0  0  0  0  0
   -3.5160   -6.0100    4.1340 C   0  0  0  0  0  2  0  0  0  0  0  0
   -2.9490   -8.3470    3.4730 C   0  0  0  0  0  1  0  0  0  0  0  0
   -2.8840   -6.8750    3.0850 C   0  0  0  0  0  2  0  0  0  0  0  0
  1 13  1  0  0  0  0
  1  2  2  0  0  0  0
  3  1  1  0  0  0  0
  4  3  2  0  0  0  0
  5  4  1  0  0  0  0
  6  5  2  0  0  0  0
  7  6  1  0  0  0  0
  8  7  2  0  0  0  0
  8  9  1  0  0  0  0
  9 10  2  0  0  0  0
 10  5  1  0  0  0  0
 11  8  1  0  0  0  0
 12 11  1  0  0  0  0
 14 15  1  1  0  0  0
 14 17  1  0  0  0  0
 14 13  1  0  0  0  0
 16 15  1  0  0  0  0
 17 18  1  0  0  0  0
 20 19  1  0  0  0  0
 20 18  1  0  0  0  0
M  END
>  <MODEL>
2

>  <REMARK>
 VINA RESULT:      -4.7      1.557      1.947
  Name = s2_esm2_control_ligand
  12 active torsions:
  status: ('A' for Active; 'I' for Inactive)
    1  A    between atoms: C_1  and  C_2
    2  A    between atoms: C_2  and  C_3
    3  A    between atoms: C_3  and  C_4
    4  A    between atoms: C_4  and  C_5
    5  A    between atoms: C_5  and  C_6
    6  A    between atoms: C_5  and  O_8
    7  A    between atoms: C_6  and  C_7
    8  A    between atoms: O_8  and  C_9
    9  A    between atoms: C_9  and  C_11
   10  A    between atoms: C_12  and  C_13
   11  A    between atoms: C_16  and  O_17
   12  A    between atoms: O_17  and  C_18
                            x       y       z     vdW  Elec       q    Type
                         _______ _______ _______ _____ _____    ______ ____

>  <TORSDO>
F 9

$$$$
s2_esm2_control_ligand
 OpenBabel10092621043D

 20 20  0  0  1  0  0  0  0  0999 V2000
   -8.2710   -6.3900    1.9820 C   0  0  0  0  0  0  0  0  0  0  0  0
   -8.6400   -7.3840    2.5480 O   0  0  0  0  0  0  0  0  0  0  0  0
   -8.1090   -6.2980    0.5090 C   0  0  0  0  0  3  0  0  0  0  0  0
   -7.6630   -7.3950   -0.1660 C   0  0  0  0  0  3  0  0  0  0  0  0
   -7.5020   -7.4400   -1.6320 C   0  0  0  0  0  0  0  0  0  0  0  0
   -6.8540   -8.5310   -2.1840 C   0  0  0  0  0  3  0  0  0  0  0  0
   -6.6890   -8.6360   -3.5520 C   0  0  0  0  0  3  0  0  0  0  0  0
   -7.1650   -7.6590   -4.3870 C   0  0  0  0  0  0  0  0  0  0  0  0
   -7.8140   -6.5730   -3.8430 C   0  0  0  0  0  3  0  0  0  0  0  0
   -7.9780   -6.4660   -2.4670 C   0  0  0  0  0  3  0  0  0  0  0  0
   -6.9810   -7.8110   -5.7200 O   0  0  0  0  0  0  0  0  0  0  0  0
   -5.6720   -8.0130   -6.2350 C   0  0  0  0  0  1  0  0  0  0  0  0
   -7.9970   -5.2620    2.6690 O   0  0  0  0  0  0  0  0  0  0  0  0
   -6.7180   -4.6660    2.5470 C   0  0  1  0  0  3  0  0  0  0  0  0
   -6.8510   -3.1690    2.8170 C   0  0  0  0  0  2  0  0  0  0  0  0
   -7.9410   -2.4840    2.0100 C   0  0  0  0  0  1  0  0  0  0  0  0
   -5.7720   -5.2840    3.5470 C   0  0  0  0  0  2  0  0  0  0  0  0
   -4.3250   -5.1090    3.2050 C   0  0  0  0  0  2  0  0  0  0  0  0
   -2.7880   -7.0580    2.9550 C   0  0  0  0  0  1  0  0  0  0  0  0
   -3.4500   -6.0900    3.9280 C   0  0  0  0  0  2  0  0  0  0  0  0
  1  2  2  0  0  0  0
  1 13  1  0  0  0  0
  3  1  1  0  0  0  0
  4  3  2  0  0  0  0
  5  4  1  0  0  0  0
  6  5  1  0  0  0  0
  7  6  2  0  0  0  0
  8  9  2  0  0  0  0
  8  7  1  0  0  0  0
  9 10  1  0  0  0  0
 10  5  2  0  0  0  0
 11  8  1  0  0  0  0
 12 11  1  0  0  0  0
 14 13  1  0  0  0  0
 14 15  1  1  0  0  0
 14 17  1  0  0  0  0
 16 15  1  0  0  0  0
 18 17  1  0  0  0  0
 18 20  1  0  0  0  0
 19 20  1  0  0  0  0
M  END
>  <MODEL>
3

>  <REMARK>
 VINA RESULT:      -4.7      1.078      1.710
  Name = s2_esm2_control_ligand
  12 active torsions:
  status: ('A' for Active; 'I' for Inactive)
    1  A    between atoms: C_1  and  C_2
    2  A    between atoms: C_2  and  C_3
    3  A    between atoms: C_3  and  C_4
    4  A    between atoms: C_4  and  C_5
    5  A    between atoms: C_5  and  C_6
    6  A    between atoms: C_5  and  O_8
    7  A    between atoms: C_6  and  C_7
    8  A    between atoms: O_8  and  C_9
    9  A    between atoms: C_9  and  C_11
   10  A    between atoms: C_12  and  C_13
   11  A    between atoms: C_16  and  O_17
   12  A    between atoms: O_17  and  C_18
                            x       y       z     vdW  Elec       q    Type
                         _______ _______ _______ _____ _____    ______ ____

>  <TORSDO>
F 9

$$$$
s2_esm2_control_ligand
 OpenBabel10092621043D

 20 20  0  0  1  0  0  0  0  0999 V2000
   -9.2210   -3.8650   -0.4180 C   0  0  0  0  0  0  0  0  0  0  0  0
  -10.1280   -3.1770   -0.8050 O   0  0  0  0  0  0  0  0  0  0  0  0
   -8.4210   -4.7420   -1.3090 C   0  0  0  0  0  3  0  0  0  0  0  0
   -8.4920   -6.0910   -1.1290 C   0  0  0  0  0  3  0  0  0  0  0  0
   -7.7780   -7.0650   -1.9780 C   0  0  0  0  0  0  0  0  0  0  0  0
   -7.6910   -6.8080   -3.3350 C   0  0  0  0  0  3  0  0  0  0  0  0
   -7.0210   -7.6760   -4.1760 C   0  0  0  0  0  3  0  0  0  0  0  0
   -6.4300   -8.8080   -3.6790 C   0  0  0  0  0  0  0  0  0  0  0  0
   -6.5120   -9.0670   -2.3290 C   0  0  0  0  0  3  0  0  0  0  0  0
   -7.1870   -8.1960   -1.4830 C   0  0  0  0  0  3  0  0  0  0  0  0
   -5.7830   -9.6240   -4.5440 O   0  0  0  0  0  0  0  0  0  0  0  0
   -4.6570  -10.3720   -4.1060 C   0  0  0  0  0  1  0  0  0  0  0  0
   -8.8540   -3.8650    0.8800 O   0  0  0  0  0  0  0  0  0  0  0  0
   -7.6580   -3.2110    1.2650 C   0  0  1  0  0  3  0  0  0  0  0  0
   -8.0150   -2.0460    2.1860 C   0  0  0  0  0  2  0  0  0  0  0  0
   -8.4330   -0.7810    1.4570 C   0  0  0  0  0  1  0  0  0  0  0  0
   -6.7610   -4.1820    1.9930 C   0  0  0  0  0  2  0  0  0  0  0  0
   -6.8420   -4.0850    3.4850 C   0  0  0  0  0  2  0  0  0  0  0  0
   -4.5060   -4.9480    3.3330 C   0  0  0  0  0  1  0  0  0  0  0  0
   -5.4860   -4.0920    4.1270 C   0  0  0  0  0  2  0  0  0  0  0  0
  1 13  1  0  0  0  0
  2  1  2  0  0  0  0
  3  4  2  0  0  0  0
  3  1  1  0  0  0  0
  5 10  1  0  0  0  0
  5  4  1  0  0  0  0
  6  5  2  0  0  0  0
  7  8  2  0  0  0  0
  7  6  1  0  0  0  0
  8  9  1  0  0  0  0
  9 10  2  0  0  0  0
 11 12  1  0  0  0  0
 11  8  1  0  0  0  0
 13 14  1  0  0  0  0
 14 17  1  1  0  0  0
 14 15  1  0  0  0  0
 16 15  1  0  0  0  0
 17 18  1  0  0  0  0
 18 20  1  0  0  0  0
 19 20  1  0  0  0  0
M  END
>  <MODEL>
4

>  <REMARK>
 VINA RESULT:      -4.6      2.267      3.233
  Name = s2_esm2_control_ligand
  12 active torsions:
  status: ('A' for Active; 'I' for Inactive)
    1  A    between atoms: C_1  and  C_2
    2  A    between atoms: C_2  and  C_3
    3  A    between atoms: C_3  and  C_4
    4  A    between atoms: C_4  and  C_5
    5  A    between atoms: C_5  and  C_6
    6  A    between atoms: C_5  and  O_8
    7  A    between atoms: C_6  and  C_7
    8  A    between atoms: O_8  and  C_9
    9  A    between atoms: C_9  and  C_11
   10  A    between atoms: C_12  and  C_13
   11  A    between atoms: C_16  and  O_17
   12  A    between atoms: O_17  and  C_18
                            x       y       z     vdW  Elec       q    Type
                         _______ _______ _______ _____ _____    ______ ____

>  <TORSDO>
F 9

$$$$
s2_esm2_control_ligand
 OpenBabel10092621043D

 20 20  0  0  1  0  0  0  0  0999 V2000
   -8.0310   -6.3670    2.1950 C   0  0  0  0  0  0  0  0  0  0  0  0
   -9.1530   -6.3230    2.6240 O   0  0  0  0  0  0  0  0  0  0  0  0
   -7.6790   -6.9570    0.8790 C   0  0  0  0  0  3  0  0  0  0  0  0
   -8.1580   -6.3610   -0.2490 C   0  0  0  0  0  3  0  0  0  0  0  0
   -7.8430   -6.8280   -1.6140 C   0  0  0  0  0  0  0  0  0  0  0  0
   -8.2120   -6.0260   -2.6790 C   0  0  0  0  0  3  0  0  0  0  0  0
   -7.9300   -6.4040   -3.9780 C   0  0  0  0  0  3  0  0  0  0  0  0
   -7.2770   -7.5820   -4.2330 C   0  0  0  0  0  0  0  0  0  0  0  0
   -6.9050   -8.3820   -3.1760 C   0  0  0  0  0  3  0  0  0  0  0  0
   -7.1910   -8.0040   -1.8700 C   0  0  0  0  0  3  0  0  0  0  0  0
   -7.0200   -7.9040   -5.5230 O   0  0  0  0  0  0  0  0  0  0  0  0
   -5.7780   -8.5000   -5.8710 C   0  0  0  0  0  1  0  0  0  0  0  0
   -7.0000   -5.8480    2.8940 O   0  0  0  0  0  0  0  0  0  0  0  0
   -7.0350   -4.4850    3.2780 C   0  0  1  0  0  3  0  0  0  0  0  0
   -5.8820   -4.2230    4.2440 C   0  0  0  0  0  2  0  0  0  0  0  0
   -4.5370   -4.7440    3.7680 C   0  0  0  0  0  1  0  0  0  0  0  0
   -6.8900   -3.6100    2.0580 C   0  0  0  0  0  2  0  0  0  0  0  0
   -7.7920   -2.4140    2.0560 C   0  0  0  0  0  2  0  0  0  0  0  0
   -9.8030   -3.2510    0.8400 C   0  0  0  0  0  1  0  0  0  0  0  0
   -9.2370   -2.7950    2.1800 C   0  0  0  0  0  2  0  0  0  0  0  0
  1  2  2  0  0  0  0
  1 13  1  0  0  0  0
  3  1  1  0  0  0  0
  4  3  2  0  0  0  0
  5  4  1  0  0  0  0
  6  5  2  0  0  0  0
  7  6  1  0  0  0  0
  8  7  2  0  0  0  0
  8  9  1  0  0  0  0
  9 10  2  0  0  0  0
 10  5  1  0  0  0  0
 11  8  1  0  0  0  0
 12 11  1  0  0  0  0
 13 14  1  0  0  0  0
 14 17  1  6  0  0  0
 14 15  1  0  0  0  0
 16 15  1  0  0  0  0
 18 17  1  0  0  0  0
 18 20  1  0  0  0  0
 19 20  1  0  0  0  0
M  END
>  <MODEL>
5

>  <REMARK>
 VINA RESULT:      -4.3      1.394      3.245
  Name = s2_esm2_control_ligand
  12 active torsions:
  status: ('A' for Active; 'I' for Inactive)
    1  A    between atoms: C_1  and  C_2
    2  A    between atoms: C_2  and  C_3
    3  A    between atoms: C_3  and  C_4
    4  A    between atoms: C_4  and  C_5
    5  A    between atoms: C_5  and  C_6
    6  A    between atoms: C_5  and  O_8
    7  A    between atoms: C_6  and  C_7
    8  A    between atoms: O_8  and  C_9
    9  A    between atoms: C_9  and  C_11
   10  A    between atoms: C_12  and  C_13
   11  A    between atoms: C_16  and  O_17
   12  A    between atoms: O_17  and  C_18
                            x       y       z     vdW  Elec       q    Type
                         _______ _______ _______ _____ _____    ______ ____

>  <TORSDO>
F 9

$$$$
s2_esm2_control_ligand
 OpenBabel10092621043D

 20 20  0  0  1  0  0  0  0  0999 V2000
   -8.8150   -5.2700    0.9820 C   0  0  0  0  0  0  0  0  0  0  0  0
   -9.6620   -4.5330    0.5520 O   0  0  0  0  0  0  0  0  0  0  0  0
   -8.2210   -6.3810    0.1980 C   0  0  0  0  0  3  0  0  0  0  0  0
   -8.1870   -6.2730   -1.1600 C   0  0  0  0  0  3  0  0  0  0  0  0
   -7.5850   -7.2910   -2.0440 C   0  0  0  0  0  0  0  0  0  0  0  0
   -7.5620   -7.0410   -3.4050 C   0  0  0  0  0  3  0  0  0  0  0  0
   -6.9970   -7.9510   -4.2800 C   0  0  0  0  0  3  0  0  0  0  0  0
   -6.4480   -9.1160   -3.8120 C   0  0  0  0  0  0  0  0  0  0  0  0
   -6.4650   -9.3670   -2.4580 C   0  0  0  0  0  3  0  0  0  0  0  0
   -7.0350   -8.4540   -1.5790 C   0  0  0  0  0  3  0  0  0  0  0  0
   -5.9040   -9.9710   -4.7100 O   0  0  0  0  0  0  0  0  0  0  0  0
   -5.8370  -11.3600   -4.4150 C   0  0  0  0  0  1  0  0  0  0  0  0
   -8.3250   -5.1110    2.2290 O   0  0  0  0  0  0  0  0  0  0  0  0
   -6.9230   -5.0880    2.4290 C   0  0  1  0  0  3  0  0  0  0  0  0
   -6.5400   -3.7380    3.0310 C   0  0  0  0  0  2  0  0  0  0  0  0
   -5.6360   -3.8310    4.2480 C   0  0  0  0  0  1  0  0  0  0  0  0
   -6.5260   -6.1990    3.3690 C   0  0  0  0  0  2  0  0  0  0  0  0
   -5.6650   -7.2500    2.7390 C   0  0  0  0  0  2  0  0  0  0  0  0
   -3.3420   -6.4300    3.1340 C   0  0  0  0  0  1  0  0  0  0  0  0
   -4.3930   -7.4710    3.5030 C   0  0  0  0  0  2  0  0  0  0  0  0
  1 13  1  0  0  0  0
  2  1  2  0  0  0  0
  3  1  1  0  0  0  0
  4  3  2  0  0  0  0
  5 10  1  0  0  0  0
  5  4  1  0  0  0  0
  6  5  2  0  0  0  0
  7  8  2  0  0  0  0
  7  6  1  0  0  0  0
  8  9  1  0  0  0  0
  9 10  2  0  0  0  0
 11 12  1  0  0  0  0
 11  8  1  0  0  0  0
 13 14  1  0  0  0  0
 14 15  1  1  0  0  0
 14 17  1  0  0  0  0
 15 16  1  0  0  0  0
 18 17  1  0  0  0  0
 18 20  1  0  0  0  0
 19 20  1  0  0  0  0
M  END
>  <MODEL>
6

>  <REMARK>
 VINA RESULT:      -4.2      1.790      2.425
  Name = s2_esm2_control_ligand
  12 active torsions:
  status: ('A' for Active; 'I' for Inactive)
    1  A    between atoms: C_1  and  C_2
    2  A    between atoms: C_2  and  C_3
    3  A    between atoms: C_3  and  C_4
    4  A    between atoms: C_4  and  C_5
    5  A    between atoms: C_5  and  C_6
    6  A    between atoms: C_5  and  O_8
    7  A    between atoms: C_6  and  C_7
    8  A    between atoms: O_8  and  C_9
    9  A    between atoms: C_9  and  C_11
   10  A    between atoms: C_12  and  C_13
   11  A    between atoms: C_16  and  O_17
   12  A    between atoms: O_17  and  C_18
                            x       y       z     vdW  Elec       q    Type
                         _______ _______ _______ _____ _____    ______ ____

>  <TORSDO>
F 9

$$$$
s2_esm2_control_ligand
 OpenBabel10092621043D

 20 20  0  0  1  0  0  0  0  0999 V2000
   -7.5410   -2.7000    2.1070 C   0  0  0  0  0  0  0  0  0  0  0  0
   -7.7930   -1.5410    2.3020 O   0  0  0  0  0  0  0  0  0  0  0  0
   -7.3580   -3.2800    0.7530 C   0  0  0  0  0  3  0  0  0  0  0  0
   -8.4480   -3.7810    0.1070 C   0  0  0  0  0  3  0  0  0  0  0  0
   -8.4000   -4.3440   -1.2570 C   0  0  0  0  0  0  0  0  0  0  0  0
   -8.3420   -5.7200   -1.3930 C   0  0  0  0  0  3  0  0  0  0  0  0
   -8.3120   -6.3040   -2.6450 C   0  0  0  0  0  3  0  0  0  0  0  0
   -8.3380   -5.5290   -3.7750 C   0  0  0  0  0  0  0  0  0  0  0  0
   -8.3990   -4.1600   -3.6450 C   0  0  0  0  0  3  0  0  0  0  0  0
   -8.4270   -3.5720   -2.3860 C   0  0  0  0  0  3  0  0  0  0  0  0
   -8.3100   -6.1510   -4.9770 O   0  0  0  0  0  0  0  0  0  0  0  0
   -7.3200   -7.1350   -5.2430 C   0  0  0  0  0  1  0  0  0  0  0  0
   -7.3850   -3.5590    3.1350 O   0  0  0  0  0  0  0  0  0  0  0  0
   -6.5120   -4.6650    2.9910 C   0  0  1  0  0  3  0  0  0  0  0  0
   -5.2670   -4.4160    3.8390 C   0  0  0  0  0  2  0  0  0  0  0  0
   -4.0850   -5.3040    3.4900 C   0  0  0  0  0  1  0  0  0  0  0  0
   -7.2050   -5.9230    3.4560 C   0  0  0  0  0  2  0  0  0  0  0  0
   -7.9170   -6.6630    2.3670 C   0  0  0  0  0  2  0  0  0  0  0  0
   -6.0320   -8.2970    2.4150 C   0  0  0  0  0  1  0  0  0  0  0  0
   -6.9790   -7.4880    1.5360 C   0  0  0  0  0  2  0  0  0  0  0  0
  1  2  2  0  0  0  0
  1 13  1  0  0  0  0
  3  1  1  0  0  0  0
  4  3  2  0  0  0  0
  5  4  1  0  0  0  0
  6  5  1  0  0  0  0
  7  6  2  0  0  0  0
  8  9  2  0  0  0  0
  8  7  1  0  0  0  0
  9 10  1  0  0  0  0
 10  5  2  0  0  0  0
 11  8  1  0  0  0  0
 12 11  1  0  0  0  0
 14 13  1  0  0  0  0
 14 17  1  1  0  0  0
 14 15  1  0  0  0  0
 16 15  1  0  0  0  0
 18 17  1  0  0  0  0
 20 18  1  0  0  0  0
 20 19  1  0  0  0  0
M  END
>  <MODEL>
7

>  <REMARK>
 VINA RESULT:      -4.2      1.919      3.554
  Name = s2_esm2_control_ligand
  12 active torsions:
  status: ('A' for Active; 'I' for Inactive)
    1  A    between atoms: C_1  and  C_2
    2  A    between atoms: C_2  and  C_3
    3  A    between atoms: C_3  and  C_4
    4  A    between atoms: C_4  and  C_5
    5  A    between atoms: C_5  and  C_6
    6  A    between atoms: C_5  and  O_8
    7  A    between atoms: C_6  and  C_7
    8  A    between atoms: O_8  and  C_9
    9  A    between atoms: C_9  and  C_11
   10  A    between atoms: C_12  and  C_13
   11  A    between atoms: C_16  and  O_17
   12  A    between atoms: O_17  and  C_18
                            x       y       z     vdW  Elec       q    Type
                         _______ _______ _______ _____ _____    ______ ____

>  <TORSDO>
F 9

$$$$
s2_esm2_control_ligand
 OpenBabel10092621043D

 20 20  0  0  1  0  0  0  0  0999 V2000
   -9.2080   -4.2570   -0.4130 C   0  0  0  0  0  0  0  0  0  0  0  0
  -10.3910   -4.1760   -0.2190 O   0  0  0  0  0  0  0  0  0  0  0  0
   -8.5960   -5.2360   -1.3460 C   0  0  0  0  0  3  0  0  0  0  0  0
   -8.0930   -6.3950   -0.8360 C   0  0  0  0  0  3  0  0  0  0  0  0
   -7.5010   -7.4620   -1.6670 C   0  0  0  0  0  0  0  0  0  0  0  0
   -7.4670   -7.2780   -3.0380 C   0  0  0  0  0  3  0  0  0  0  0  0
   -6.9100   -8.2350   -3.8650 C   0  0  0  0  0  3  0  0  0  0  0  0
   -6.3800   -9.3850   -3.3390 C   0  0  0  0  0  0  0  0  0  0  0  0
   -6.4090   -9.5710   -1.9750 C   0  0  0  0  0  3  0  0  0  0  0  0
   -6.9710   -8.6100   -1.1440 C   0  0  0  0  0  3  0  0  0  0  0  0
   -5.8430  -10.2890   -4.1920 O   0  0  0  0  0  0  0  0  0  0  0  0
   -4.4810  -10.6710   -4.0540 C   0  0  0  0  0  1  0  0  0  0  0  0
   -8.3440   -3.4270    0.2070 O   0  0  0  0  0  0  0  0  0  0  0  0
   -8.2980   -3.3990    1.6230 C   0  0  1  0  0  3  0  0  0  0  0  0
   -7.1830   -4.3320    2.0910 C   0  0  0  0  0  2  0  0  0  0  0  0
   -6.3690   -3.7960    3.2550 C   0  0  0  0  0  1  0  0  0  0  0  0
   -8.0220   -1.9930    2.0950 C   0  0  0  0  0  2  0  0  0  0  0  0
   -9.0420   -0.9910    1.6540 C   0  0  0  0  0  2  0  0  0  0  0  0
   -8.8450    1.4800    1.3730 C   0  0  0  0  0  1  0  0  0  0  0  0
   -8.4360    0.1130    0.8390 C   0  0  0  0  0  2  0  0  0  0  0  0
  1  2  2  0  0  0  0
  1 13  1  0  0  0  0
  3  4  2  0  0  0  0
  3  1  1  0  0  0  0
  5 10  1  0  0  0  0
  5  4  1  0  0  0  0
  6  5  2  0  0  0  0
  7  8  2  0  0  0  0
  7  6  1  0  0  0  0
  8  9  1  0  0  0  0
  9 10  2  0  0  0  0
 11 12  1  0  0  0  0
 11  8  1  0  0  0  0
 13 14  1  0  0  0  0
 14 15  1  6  0  0  0
 14 17  1  0  0  0  0
 15 16  1  0  0  0  0
 18 17  1  0  0  0  0
 20 19  1  0  0  0  0
 20 18  1  0  0  0  0
M  END
>  <MODEL>
8

>  <REMARK>
 VINA RESULT:      -4.1      2.714      4.650
  Name = s2_esm2_control_ligand
  12 active torsions:
  status: ('A' for Active; 'I' for Inactive)
    1  A    between atoms: C_1  and  C_2
    2  A    between atoms: C_2  and  C_3
    3  A    between atoms: C_3  and  C_4
    4  A    between atoms: C_4  and  C_5
    5  A    between atoms: C_5  and  C_6
    6  A    between atoms: C_5  and  O_8
    7  A    between atoms: C_6  and  C_7
    8  A    between atoms: O_8  and  C_9
    9  A    between atoms: C_9  and  C_11
   10  A    between atoms: C_12  and  C_13
   11  A    between atoms: C_16  and  O_17
   12  A    between atoms: O_17  and  C_18
                            x       y       z     vdW  Elec       q    Type
                         _______ _______ _______ _____ _____    ______ ____

>  <TORSDO>
F 9

$$$$
s2_esm2_control_ligand
 OpenBabel10092621043D

 20 20  0  0  1  0  0  0  0  0999 V2000
   -7.6980   -2.6770    1.7880 C   0  0  0  0  0  0  0  0  0  0  0  0
   -7.6070   -1.6940    2.4740 O   0  0  0  0  0  0  0  0  0  0  0  0
   -6.7240   -3.7960    1.8290 C   0  0  0  0  0  3  0  0  0  0  0  0
   -6.2680   -4.2170    3.0430 C   0  0  0  0  0  3  0  0  0  0  0  0
   -5.3320   -5.3460    3.2150 C   0  0  0  0  0  0  0  0  0  0  0  0
   -4.0950   -5.0880    3.7790 C   0  0  0  0  0  3  0  0  0  0  0  0
   -3.1840   -6.1080    3.9790 C   0  0  0  0  0  3  0  0  0  0  0  0
   -3.4930   -7.3950    3.6230 C   0  0  0  0  0  0  0  0  0  0  0  0
   -4.7230   -7.6570    3.0650 C   0  0  0  0  0  3  0  0  0  0  0  0
   -5.6380   -6.6320    2.8600 C   0  0  0  0  0  3  0  0  0  0  0  0
   -2.5670   -8.3580    3.8440 O   0  0  0  0  0  0  0  0  0  0  0  0
   -2.9730   -9.7150    3.9710 C   0  0  0  0  0  1  0  0  0  0  0  0
   -8.7300   -2.8350    0.9350 O   0  0  0  0  0  0  0  0  0  0  0  0
   -9.0300   -1.8080    0.0060 C   0  0  1  0  0  3  0  0  0  0  0  0
   -9.1340   -2.4270   -1.3860 C   0  0  0  0  0  2  0  0  0  0  0  0
   -8.4250   -3.7620   -1.5300 C   0  0  0  0  0  1  0  0  0  0  0  0
  -10.3390   -1.1560    0.3750 C   0  0  0  0  0  2  0  0  0  0  0  0
  -10.1900    0.1890    1.0160 C   0  0  0  0  0  2  0  0  0  0  0  0
   -8.5880    2.0450    1.4800 C   0  0  0  0  0  1  0  0  0  0  0  0
   -8.9700    0.9150    0.5310 C   0  0  0  0  0  2  0  0  0  0  0  0
  1  3  1  0  0  0  0
  1  2  2  0  0  0  0
  3  4  2  0  0  0  0
  4  5  1  0  0  0  0
  5  6  1  0  0  0  0
  6  7  2  0  0  0  0
  8 11  1  0  0  0  0
  8  7  1  0  0  0  0
  9  8  2  0  0  0  0
 10  9  1  0  0  0  0
 10  5  2  0  0  0  0
 11 12  1  0  0  0  0
 13  1  1  0  0  0  0
 14 15  1  6  0  0  0
 14 17  1  0  0  0  0
 14 13  1  0  0  0  0
 16 15  1  0  0  0  0
 17 18  1  0  0  0  0
 20 18  1  0  0  0  0
 20 19  1  0  0  0  0
M  END
>  <MODEL>
9

>  <REMARK>
 VINA RESULT:      -4.1      3.627      7.013
  Name = s2_esm2_control_ligand
  12 active torsions:
  status: ('A' for Active; 'I' for Inactive)
    1  A    between atoms: C_1  and  C_2
    2  A    between atoms: C_2  and  C_3
    3  A    between atoms: C_3  and  C_4
    4  A    between atoms: C_4  and  C_5
    5  A    between atoms: C_5  and  C_6
    6  A    between atoms: C_5  and  O_8
    7  A    between atoms: C_6  and  C_7
    8  A    between atoms: O_8  and  C_9
    9  A    between atoms: C_9  and  C_11
   10  A    between atoms: C_12  and  C_13
   11  A    between atoms: C_16  and  O_17
   12  A    between atoms: O_17  and  C_18
                            x       y       z     vdW  Elec       q    Type
                         _______ _______ _______ _____ _____    ______ ____

>  <TORSDO>
F 9

$$$$
