s3_orig_f12_ligand
 OpenBabel10092621073D

 20 20  0  0  1  0  0  0  0  0999 V2000
    2.3750    5.9770    4.9510 C   0  0  0  0  0  0  0  0  0  0  0  0
    2.5020    7.1180    5.3130 O   0  0  0  0  0  0  0  0  0  0  0  0
    3.0260    5.4080    3.7460 C   0  0  0  0  0  3  0  0  0  0  0  0
    4.2410    4.8660    3.7910 C   0  0  0  0  0  3  0  0  0  0  0  0
    4.9810    4.3710    2.6030 C   0  0  0  0  0  0  0  0  0  0  0  0
    4.9060    5.0800    1.4150 C   0  0  0  0  0  3  0  0  0  0  0  0
    5.5210    4.5980    0.2650 C   0  0  0  0  0  3  0  0  0  0  0  0
    6.2690    3.4400    0.2980 C   0  0  0  0  0  0  0  0  0  0  0  0
    6.3840    2.7690    1.4880 C   0  0  0  0  0  3  0  0  0  0  0  0
    5.7410    3.2310    2.6360 C   0  0  0  0  0  3  0  0  0  0  0  0
    6.9110    2.9330   -0.8130 O   0  0  0  0  0  0  0  0  0  0  0  0
    8.2970    2.6640   -0.7070 C   0  0  0  0  0  1  0  0  0  0  0  0
    1.6300    5.2330    5.6010 O   0  0  0  0  0  0  0  0  0  0  0  0
    0.7330    4.3350    5.9600 C   0  0  1  0  0  3  0  0  0  0  0  0
    0.5720    4.3290    7.4680 C   0  0  0  0  0  2  0  0  0  0  0  0
    1.8820    4.1720    8.2330 C   0  0  0  0  0  1  0  0  0  0  0  0
   -0.6110    4.5830    5.2940 C   0  0  0  0  0  2  0  0  0  0  0  0
   -1.4600    5.6180    5.9580 C   0  0  0  0  0  2  0  0  0  0  0  0
   -1.1250    6.7590    3.7600 C   0  0  0  0  0  1  0  0  0  0  0  0
   -1.4460    6.9370    5.2290 C   0  0  0  0  0  2  0  0  0  0  0  0
  1  2  2  0  0  0  0
  1 13  1  0  0  0  0
  3  4  2  0  0  0  0
  3  1  1  0  0  0  0
  5 10  1  0  0  0  0
  5  4  1  0  0  0  0
  6  5  2  0  0  0  0
  7  8  2  0  0  0  0
  7  6  1  0  0  0  0
  8  9  1  0  0  0  0
  9 10  2  0  0  0  0
 11 12  1  0  0  0  0
 11  8  1  0  0  0  0
 13 14  1  0  0  0  0
 14 17  1  6  0  0  0
 14 15  1  0  0  0  0
 15 16  1  0  0  0  0
 17 18  1  0  0  0  0
 19 20  1  0  0  0  0
 20 18  1  0  0  0  0
M  END
>  <MODEL>
1

>  <REMARK>
 VINA RESULT:      -4.3      0.000      0.000
  Name = s3_orig_f12_ligand
  12 active torsions:
  status: ('A' for Active; 'I' for Inactive)
    1  A    between atoms: C_1  and  C_2
    2  A    between atoms: C_2  and  C_3
    3  A    between atoms: C_3  and  C_4
    4  A    between atoms: C_4  and  C_5
    5  A    between atoms: C_5  and  C_6
    6  A    between atoms: C_5  and  O_8
    7  A    between atoms: C_6  and  C_7
    8  A    between atoms: O_8  and  C_9
    9  A    between atoms: C_9  and  C_11
   10  A    between atoms: C_12  and  C_13
   11  A    between atoms: C_16  and  O_17
   12  A    between atoms: O_17  and  C_18
                            x       y       z     vdW  Elec       q    Type
                         _______ _______ _______ _____ _____    ______ ____

>  <TORSDO>
F 9

$$$$
s3_orig_f12_ligand
 OpenBabel10092621073D

 20 20  0  0  1  0  0  0  0  0999 V2000
    1.8420    6.1510    2.2100 C   0  0  0  0  0  0  0  0  0  0  0  0
    1.4520    6.2300    1.0740 O   0  0  0  0  0  0  0  0  0  0  0  0
    0.9520    6.0400    3.3900 C   0  0  0  0  0  3  0  0  0  0  0  0
    1.1800    5.1640    4.3660 C   0  0  0  0  0  3  0  0  0  0  0  0
    0.2730    4.9400    5.5200 C   0  0  0  0  0  0  0  0  0  0  0  0
    0.7550    4.2880    6.6430 C   0  0  0  0  0  3  0  0  0  0  0  0
   -0.0920    3.9930    7.7050 C   0  0  0  0  0  3  0  0  0  0  0  0
   -1.4110    4.3970    7.6890 C   0  0  0  0  0  0  0  0  0  0  0  0
   -1.8700    5.0880    6.5990 C   0  0  0  0  0  3  0  0  0  0  0  0
   -1.0330    5.3580    5.5170 C   0  0  0  0  0  3  0  0  0  0  0  0
   -2.2830    4.1410    8.7280 O   0  0  0  0  0  0  0  0  0  0  0  0
   -2.3360    2.8190    9.2310 C   0  0  0  0  0  1  0  0  0  0  0  0
    3.0610    6.1980    2.4190 O   0  0  0  0  0  0  0  0  0  0  0  0
    4.3480    5.9150    2.4920 C   0  0  1  0  0  3  0  0  0  0  0  0
    4.7880    5.8520    3.9430 C   0  0  0  0  0  2  0  0  0  0  0  0
    4.3760    7.0650    4.7710 C   0  0  0  0  0  1  0  0  0  0  0  0
    4.6780    4.6070    1.7910 C   0  0  0  0  0  2  0  0  0  0  0  0
    4.7360    3.4120    2.6850 C   0  0  0  0  0  2  0  0  0  0  0  0
    7.2230    3.1560    2.7190 C   0  0  0  0  0  1  0  0  0  0  0  0
    5.9000    2.5060    2.3700 C   0  0  0  0  0  2  0  0  0  0  0  0
  1 13  1  0  0  0  0
  1  3  1  0  0  0  0
  2  1  2  0  0  0  0
  3  4  2  0  0  0  0
  4  5  1  0  0  0  0
  5  6  1  0  0  0  0
  6  7  2  0  0  0  0
  8  7  1  0  0  0  0
  8 11  1  0  0  0  0
  9  8  2  0  0  0  0
 10  5  2  0  0  0  0
 10  9  1  0  0  0  0
 11 12  1  0  0  0  0
 13 14  1  0  0  0  0
 14 17  1  1  0  0  0
 14 15  1  0  0  0  0
 15 16  1  0  0  0  0
 17 18  1  0  0  0  0
 20 18  1  0  0  0  0
 20 19  1  0  0  0  0
M  END
>  <MODEL>
2

>  <REMARK>
 VINA RESULT:      -4.3      2.279      7.832
  Name = s3_orig_f12_ligand
  12 active torsions:
  status: ('A' for Active; 'I' for Inactive)
    1  A    between atoms: C_1  and  C_2
    2  A    between atoms: C_2  and  C_3
    3  A    between atoms: C_3  and  C_4
    4  A    between atoms: C_4  and  C_5
    5  A    between atoms: C_5  and  C_6
    6  A    between atoms: C_5  and  O_8
    7  A    between atoms: C_6  and  C_7
    8  A    between atoms: O_8  and  C_9
    9  A    between atoms: C_9  and  C_11
   10  A    between atoms: C_12  and  C_13
   11  A    between atoms: C_16  and  O_17
   12  A    between atoms: O_17  and  C_18
                            x       y       z     vdW  Elec       q    Type
                         _______ _______ _______ _____ _____    ______ ____

>  <TORSDO>
F 9

$$$$
s3_orig_f12_ligand
 OpenBabel10092621073D

 20 20  0  0  1  0  0  0  0  0999 V2000
    2.8420    6.8400    5.0570 C   0  0  0  0  0  0  0  0  0  0  0  0
    3.3910    7.3550    5.9970 O   0  0  0  0  0  0  0  0  0  0  0  0
    3.5490    6.3260    3.8600 C   0  0  0  0  0  3  0  0  0  0  0  0
    3.9120    5.0490    3.7500 C   0  0  0  0  0  3  0  0  0  0  0  0
    4.7060    4.5000    2.6230 C   0  0  0  0  0  0  0  0  0  0  0  0
    4.7430    5.1880    1.4210 C   0  0  0  0  0  3  0  0  0  0  0  0
    5.4120    4.6580    0.3240 C   0  0  0  0  0  3  0  0  0  0  0  0
    6.1020    3.4670    0.4260 C   0  0  0  0  0  0  0  0  0  0  0  0
    6.1060    2.8150    1.6310 C   0  0  0  0  0  3  0  0  0  0  0  0
    5.4100    3.3270    2.7260 C   0  0  0  0  0  3  0  0  0  0  0  0
    6.7920    2.9110   -0.6310 O   0  0  0  0  0  0  0  0  0  0  0  0
    8.1860    2.7170   -0.4770 C   0  0  0  0  0  1  0  0  0  0  0  0
    1.6070    6.7600    5.0670 O   0  0  0  0  0  0  0  0  0  0  0  0
    0.3640    6.3200    5.0380 C   0  0  1  0  0  3  0  0  0  0  0  0
   -0.4620    7.1490    4.0720 C   0  0  0  0  0  2  0  0  0  0  0  0
   -0.0000    7.0560    2.6210 C   0  0  0  0  0  1  0  0  0  0  0  0
    0.2950    4.8510    4.6560 C   0  0  0  0  0  2  0  0  0  0  0  0
    0.8850    3.9130    5.6570 C   0  0  0  0  0  2  0  0  0  0  0  0
    1.7590    4.3890    7.9500 C   0  0  0  0  0  1  0  0  0  0  0  0
    0.5280    4.2780    7.0760 C   0  0  0  0  0  2  0  0  0  0  0  0
  1 13  1  0  0  0  0
  1  2  2  0  0  0  0
  3  1  1  0  0  0  0
  4  3  2  0  0  0  0
  5 10  1  0  0  0  0
  5  4  1  0  0  0  0
  6  5  2  0  0  0  0
  7  8  2  0  0  0  0
  7  6  1  0  0  0  0
  8  9  1  0  0  0  0
  9 10  2  0  0  0  0
 11 12  1  0  0  0  0
 11  8  1  0  0  0  0
 14 15  1  6  0  0  0
 14 13  1  0  0  0  0
 16 15  1  0  0  0  0
 17 14  1  0  0  0  0
 17 18  1  0  0  0  0
 18 20  1  0  0  0  0
 20 19  1  0  0  0  0
M  END
>  <MODEL>
3

>  <REMARK>
 VINA RESULT:      -4.2      0.888      2.561
  Name = s3_orig_f12_ligand
  12 active torsions:
  status: ('A' for Active; 'I' for Inactive)
    1  A    between atoms: C_1  and  C_2
    2  A    between atoms: C_2  and  C_3
    3  A    between atoms: C_3  and  C_4
    4  A    between atoms: C_4  and  C_5
    5  A    between atoms: C_5  and  C_6
    6  A    between atoms: C_5  and  O_8
    7  A    between atoms: C_6  and  C_7
    8  A    between atoms: O_8  and  C_9
    9  A    between atoms: C_9  and  C_11
   10  A    between atoms: C_12  and  C_13
   11  A    between atoms: C_16  and  O_17
   12  A    between atoms: O_17  and  C_18
                            x       y       z     vdW  Elec       q    Type
                         _______ _______ _______ _____ _____    ______ ____

>  <TORSDO>
F 9

$$$$
s3_orig_f12_ligand
 OpenBabel10092621073D

 20 20  0  0  1  0  0  0  0  0999 V2000
    2.1480    7.1890    4.3760 C   0  0  0  0  0  0  0  0  0  0  0  0
    2.6960    7.7850    5.2680 O   0  0  0  0  0  0  0  0  0  0  0  0
    2.8610    6.5040    3.2720 C   0  0  0  0  0  3  0  0  0  0  0  0
    3.5920    5.4100    3.4770 C   0  0  0  0  0  3  0  0  0  0  0  0
    4.4050    4.7390    2.4320 C   0  0  0  0  0  0  0  0  0  0  0  0
    5.0370    3.5430    2.7300 C   0  0  0  0  0  3  0  0  0  0  0  0
    5.8700    2.9330    1.7980 C   0  0  0  0  0  3  0  0  0  0  0  0
    6.0340    3.4720    0.5400 C   0  0  0  0  0  0  0  0  0  0  0  0
    5.3660    4.6280    0.2310 C   0  0  0  0  0  3  0  0  0  0  0  0
    4.5550    5.2610    1.1730 C   0  0  0  0  0  3  0  0  0  0  0  0
    6.8370    2.8930   -0.4220 O   0  0  0  0  0  0  0  0  0  0  0  0
    7.9580    3.6320   -0.8740 C   0  0  0  0  0  1  0  0  0  0  0  0
    0.9110    7.1710    4.3530 O   0  0  0  0  0  0  0  0  0  0  0  0
   -0.3630    7.0840    4.6850 C   0  0  1  0  0  3  0  0  0  0  0  0
   -1.2210    6.9670    3.4390 C   0  0  0  0  0  2  0  0  0  0  0  0
   -0.8050    7.9020    2.3070 C   0  0  0  0  0  1  0  0  0  0  0  0
   -0.6250    5.9060    5.6100 C   0  0  0  0  0  2  0  0  0  0  0  0
   -0.3790    4.5640    5.0030 C   0  0  0  0  0  2  0  0  0  0  0  0
    1.2420    4.4160    6.9000 C   0  0  0  0  0  1  0  0  0  0  0  0
    0.8830    3.9160    5.5170 C   0  0  0  0  0  2  0  0  0  0  0  0
  1  2  2  0  0  0  0
  3  4  2  0  0  0  0
  3  1  1  0  0  0  0
  5  6  1  0  0  0  0
  5  4  1  0  0  0  0
  7  6  2  0  0  0  0
  8  7  1  0  0  0  0
  9  8  2  0  0  0  0
  9 10  1  0  0  0  0
 10  5  2  0  0  0  0
 11  8  1  0  0  0  0
 12 11  1  0  0  0  0
 13  1  1  0  0  0  0
 13 14  1  0  0  0  0
 14 15  1  6  0  0  0
 14 17  1  0  0  0  0
 16 15  1  0  0  0  0
 18 20  1  0  0  0  0
 18 17  1  0  0  0  0
 20 19  1  0  0  0  0
M  END
>  <MODEL>
4

>  <REMARK>
 VINA RESULT:      -4.2      0.963      2.907
  Name = s3_orig_f12_ligand
  12 active torsions:
  status: ('A' for Active; 'I' for Inactive)
    1  A    between atoms: C_1  and  C_2
    2  A    between atoms: C_2  and  C_3
    3  A    between atoms: C_3  and  C_4
    4  A    between atoms: C_4  and  C_5
    5  A    between atoms: C_5  and  C_6
    6  A    between atoms: C_5  and  O_8
    7  A    between atoms: C_6  and  C_7
    8  A    between atoms: O_8  and  C_9
    9  A    between atoms: C_9  and  C_11
   10  A    between atoms: C_12  and  C_13
   11  A    between atoms: C_16  and  O_17
   12  A    between atoms: O_17  and  C_18
                            x       y       z     vdW  Elec       q    Type
                         _______ _______ _______ _____ _____    ______ ____

>  <TORSDO>
F 9

$$$$
s3_orig_f12_ligand
 OpenBabel10092621073D

 20 20  0  0  1  0  0  0  0  0999 V2000
    2.0400    6.2880    1.8460 C   0  0  0  0  0  0  0  0  0  0  0  0
    1.4140    6.6700    0.8910 O   0  0  0  0  0  0  0  0  0  0  0  0
    3.2850    5.4880    1.7590 C   0  0  0  0  0  3  0  0  0  0  0  0
    3.9070    5.0330    2.8450 C   0  0  0  0  0  3  0  0  0  0  0  0
    5.2050    4.3140    2.8250 C   0  0  0  0  0  0  0  0  0  0  0  0
    5.2640    3.0370    2.2910 C   0  0  0  0  0  3  0  0  0  0  0  0
    6.4470    2.3080    2.3320 C   0  0  0  0  0  3  0  0  0  0  0  0
    7.6000    2.8620    2.8490 C   0  0  0  0  0  0  0  0  0  0  0  0
    7.5500    4.1450    3.3290 C   0  0  0  0  0  3  0  0  0  0  0  0
    6.3580    4.8680    3.3190 C   0  0  0  0  0  3  0  0  0  0  0  0
    8.8000    2.1820    2.8960 O   0  0  0  0  0  0  0  0  0  0  0  0
    8.8770    0.9380    2.2250 C   0  0  0  0  0  1  0  0  0  0  0  0
    1.6060    6.5470    2.9760 O   0  0  0  0  0  0  0  0  0  0  0  0
    0.8240    6.7920    4.0090 C   0  0  1  0  0  3  0  0  0  0  0  0
   -0.5890    6.3190    3.7200 C   0  0  0  0  0  2  0  0  0  0  0  0
   -1.4890    7.3880    3.1090 C   0  0  0  0  0  1  0  0  0  0  0  0
    1.3430    6.1350    5.2780 C   0  0  0  0  0  2  0  0  0  0  0  0
    1.2130    4.6470    5.3130 C   0  0  0  0  0  2  0  0  0  0  0  0
   -0.6660    4.3020    6.9260 C   0  0  0  0  0  1  0  0  0  0  0  0
    0.8170    4.1300    6.6740 C   0  0  0  0  0  2  0  0  0  0  0  0
  1 13  1  0  0  0  0
  2  1  2  0  0  0  0
  3  1  1  0  0  0  0
  3  4  2  0  0  0  0
  5  4  1  0  0  0  0
  5 10  1  0  0  0  0
  6  7  1  0  0  0  0
  6  5  2  0  0  0  0
  7  8  2  0  0  0  0
  8 11  1  0  0  0  0
  8  9  1  0  0  0  0
 10  9  2  0  0  0  0
 12 11  1  0  0  0  0
 13 14  1  0  0  0  0
 14 15  1  6  0  0  0
 14 17  1  0  0  0  0
 16 15  1  0  0  0  0
 17 18  1  0  0  0  0
 18 20  1  0  0  0  0
 20 19  1  0  0  0  0
M  END
>  <MODEL>
5

>  <REMARK>
 VINA RESULT:      -4.2      2.079      3.405
  Name = s3_orig_f12_ligand
  12 active torsions:
  status: ('A' for Active; 'I' for Inactive)
    1  A    between atoms: C_1  and  C_2
    2  A    between atoms: C_2  and  C_3
    3  A    between atoms: C_3  and  C_4
    4  A    between atoms: C_4  and  C_5
    5  A    between atoms: C_5  and  C_6
    6  A    between atoms: C_5  and  O_8
    7  A    between atoms: C_6  and  C_7
    8  A    between atoms: O_8  and  C_9
    9  A    between atoms: C_9  and  C_11
   10  A    between atoms: C_12  and  C_13
   11  A    between atoms: C_16  and  O_17
   12  A    between atoms: O_17  and  C_18
                            x       y       z     vdW  Elec       q    Type
                         _______ _______ _______ _____ _____    ______ ____

>  <TORSDO>
F 9

$$$$
s3_orig_f12_ligand
 OpenBabel10092621073D

 20 20  0  0  1  0  0  0  0  0999 V2000
    1.9290    5.4000    5.3420 C   0  0  0  0  0  0  0  0  0  0  0  0
    2.4080    6.2200    6.0820 O   0  0  0  0  0  0  0  0  0  0  0  0
    2.6790    4.7130    4.2640 C   0  0  0  0  0  3  0  0  0  0  0  0
    3.7940    5.2240    3.7450 C   0  0  0  0  0  3  0  0  0  0  0  0
    4.5310    4.6330    2.6000 C   0  0  0  0  0  0  0  0  0  0  0  0
    5.1860    3.4240    2.7680 C   0  0  0  0  0  3  0  0  0  0  0  0
    5.9510    2.8860    1.7390 C   0  0  0  0  0  3  0  0  0  0  0  0
    6.0230    3.5130    0.5120 C   0  0  0  0  0  0  0  0  0  0  0  0
    5.3310    4.6820    0.3330 C   0  0  0  0  0  3  0  0  0  0  0  0
    4.5890    5.2410    1.3730 C   0  0  0  0  0  3  0  0  0  0  0  0
    6.7550    3.0080   -0.5430 O   0  0  0  0  0  0  0  0  0  0  0  0
    8.1060    2.6610   -0.2980 C   0  0  0  0  0  1  0  0  0  0  0  0
    0.7270    5.1310    5.4610 O   0  0  0  0  0  0  0  0  0  0  0  0
   -0.5910    5.1630    5.4130 C   0  0  1  0  0  3  0  0  0  0  0  0
   -1.1740    4.7270    6.7440 C   0  0  0  0  0  2  0  0  0  0  0  0
   -2.1310    5.7400    7.3650 C   0  0  0  0  0  1  0  0  0  0  0  0
   -1.1090    6.5440    5.0440 C   0  0  0  0  0  2  0  0  0  0  0  0
   -1.1910    6.8130    3.5770 C   0  0  0  0  0  2  0  0  0  0  0  0
    0.7740    6.9430    2.0370 C   0  0  0  0  0  1  0  0  0  0  0  0
   -0.0530    7.6670    3.0780 C   0  0  0  0  0  2  0  0  0  0  0  0
  1 13  1  0  0  0  0
  1  2  2  0  0  0  0
  3  1  1  0  0  0  0
  4  3  2  0  0  0  0
  5  6  1  0  0  0  0
  5  4  1  0  0  0  0
  7  6  2  0  0  0  0
  8  7  1  0  0  0  0
  9  8  2  0  0  0  0
  9 10  1  0  0  0  0
 10  5  2  0  0  0  0
 11 12  1  0  0  0  0
 11  8  1  0  0  0  0
 14 17  1  1  0  0  0
 14 13  1  0  0  0  0
 14 15  1  0  0  0  0
 15 16  1  0  0  0  0
 18 17  1  0  0  0  0
 19 20  1  0  0  0  0
 20 18  1  0  0  0  0
M  END
>  <MODEL>
6

>  <REMARK>
 VINA RESULT:      -4.0      1.088      1.983
  Name = s3_orig_f12_ligand
  12 active torsions:
  status: ('A' for Active; 'I' for Inactive)
    1  A    between atoms: C_1  and  C_2
    2  A    between atoms: C_2  and  C_3
    3  A    between atoms: C_3  and  C_4
    4  A    between atoms: C_4  and  C_5
    5  A    between atoms: C_5  and  C_6
    6  A    between atoms: C_5  and  O_8
    7  A    between atoms: C_6  and  C_7
    8  A    between atoms: O_8  and  C_9
    9  A    between atoms: C_9  and  C_11
   10  A    between atoms: C_12  and  C_13
   11  A    between atoms: C_16  and  O_17
   12  A    between atoms: O_17  and  C_18
                            x       y       z     vdW  Elec       q    Type
                         _______ _______ _______ _____ _____    ______ ____

>  <TORSDO>
F 9

$$$$
s3_orig_f12_ligand
 OpenBabel10092621073D

 20 20  0  0  1  0  0  0  0  0999 V2000
    2.4260    6.2760    2.6860 C   0  0  0  0  0  0  0  0  0  0  0  0
    1.7100    6.5810    1.7680 O   0  0  0  0  0  0  0  0  0  0  0  0
    3.7900    5.7180    2.5280 C   0  0  0  0  0  3  0  0  0  0  0  0
    4.0930    4.4780    2.9080 C   0  0  0  0  0  3  0  0  0  0  0  0
    5.4590    3.9000    2.8650 C   0  0  0  0  0  0  0  0  0  0  0  0
    5.6480    2.6490    2.3010 C   0  0  0  0  0  3  0  0  0  0  0  0
    6.9010    2.0480    2.3190 C   0  0  0  0  0  3  0  0  0  0  0  0
    7.9930    2.7090    2.8430 C   0  0  0  0  0  0  0  0  0  0  0  0
    7.8120    3.9670    3.3530 C   0  0  0  0  0  3  0  0  0  0  0  0
    6.5510    4.5610    3.3670 C   0  0  0  0  0  3  0  0  0  0  0  0
    9.2580    2.1580    2.8680 O   0  0  0  0  0  0  0  0  0  0  0  0
    9.3850    0.7870    2.5390 C   0  0  0  0  0  1  0  0  0  0  0  0
    1.9920    6.4030    3.8390 O   0  0  0  0  0  0  0  0  0  0  0  0
    1.5100    6.1740    5.0450 C   0  0  1  0  0  3  0  0  0  0  0  0
    1.3090    4.6840    5.2540 C   0  0  0  0  0  2  0  0  0  0  0  0
   -0.1360    4.2860    5.5360 C   0  0  0  0  0  1  0  0  0  0  0  0
    2.4150    6.7350    6.1300 C   0  0  0  0  0  2  0  0  0  0  0  0
    3.6540    5.9410    6.3860 C   0  0  0  0  0  2  0  0  0  0  0  0
    6.1300    6.1310    6.6770 C   0  0  0  0  0  1  0  0  0  0  0  0
    4.9070    6.6640    5.9610 C   0  0  0  0  0  2  0  0  0  0  0  0
  1 13  1  0  0  0  0
  2  1  2  0  0  0  0
  3  1  1  0  0  0  0
  3  4  2  0  0  0  0
  5  4  1  0  0  0  0
  5 10  1  0  0  0  0
  6  7  1  0  0  0  0
  6  5  2  0  0  0  0
  7  8  2  0  0  0  0
  8 11  1  0  0  0  0
  8  9  1  0  0  0  0
  9 10  2  0  0  0  0
 12 11  1  0  0  0  0
 13 14  1  0  0  0  0
 14 15  1  1  0  0  0
 14 17  1  0  0  0  0
 15 16  1  0  0  0  0
 17 18  1  0  0  0  0
 20 18  1  0  0  0  0
 20 19  1  0  0  0  0
M  END
>  <MODEL>
7

>  <REMARK>
 VINA RESULT:      -4.0      2.234      3.652
  Name = s3_orig_f12_ligand
  12 active torsions:
  status: ('A' for Active; 'I' for Inactive)
    1  A    between atoms: C_1  and  C_2
    2  A    between atoms: C_2  and  C_3
    3  A    between atoms: C_3  and  C_4
    4  A    between atoms: C_4  and  C_5
    5  A    between atoms: C_5  and  C_6
    6  A    between atoms: C_5  and  O_8
    7  A    between atoms: C_6  and  C_7
    8  A    between atoms: O_8  and  C_9
    9  A    between atoms: C_9  and  C_11
   10  A    between atoms: C_12  and  C_13
   11  A    between atoms: C_16  and  O_17
   12  A    between atoms: O_17  and  C_18
                            x       y       z     vdW  Elec       q    Type
                         _______ _______ _______ _____ _____    ______ ____

>  <TORSDO>
F 9

$$$$
s3_orig_f12_ligand
 OpenBabel10092621073D

 20 20  0  0  1  0  0  0  0  0999 V2000
    9.0820    1.7640   -1.0660 C   0  0  0  0  0  0  0  0  0  0  0  0
    9.4480    0.6170   -1.0510 O   0  0  0  0  0  0  0  0  0  0  0  0
    8.1930    2.3680   -0.0450 C   0  0  0  0  0  3  0  0  0  0  0  0
    7.0130    2.8960   -0.3630 C   0  0  0  0  0  3  0  0  0  0  0  0
    6.1260    3.6000    0.5970 C   0  0  0  0  0  0  0  0  0  0  0  0
    6.0440    3.1440    1.9030 C   0  0  0  0  0  3  0  0  0  0  0  0
    5.1610    3.7330    2.8020 C   0  0  0  0  0  3  0  0  0  0  0  0
    4.3970    4.8200    2.4310 C   0  0  0  0  0  0  0  0  0  0  0  0
    4.5200    5.3010    1.1540 C   0  0  0  0  0  3  0  0  0  0  0  0
    5.3800    4.6930    0.2390 C   0  0  0  0  0  3  0  0  0  0  0  0
    3.5210    5.4460    3.2940 O   0  0  0  0  0  0  0  0  0  0  0  0
    3.0340    6.7230    2.9240 C   0  0  0  0  0  1  0  0  0  0  0  0
    9.4400    2.4830   -2.0070 O   0  0  0  0  0  0  0  0  0  0  0  0
    9.5670    3.0570   -3.1880 C   0  0  1  0  0  3  0  0  0  0  0  0
    8.4660    2.5880   -4.1200 C   0  0  0  0  0  2  0  0  0  0  0  0
    8.7530    1.2540   -4.8010 C   0  0  0  0  0  1  0  0  0  0  0  0
    9.5490    4.5740   -3.0830 C   0  0  0  0  0  2  0  0  0  0  0  0
    8.2920    5.2220   -3.5640 C   0  0  0  0  0  2  0  0  0  0  0  0
    8.4500    6.2230   -1.2780 C   0  0  0  0  0  1  0  0  0  0  0  0
    7.5520    5.9430   -2.4650 C   0  0  0  0  0  2  0  0  0  0  0  0
  1  2  2  0  0  0  0
  1  3  1  0  0  0  0
  4  3  2  0  0  0  0
  4  5  1  0  0  0  0
  5  6  1  0  0  0  0
  6  7  2  0  0  0  0
  8  7  1  0  0  0  0
  8 11  1  0  0  0  0
  9  8  2  0  0  0  0
 10  5  2  0  0  0  0
 10  9  1  0  0  0  0
 12 11  1  0  0  0  0
 13  1  1  0  0  0  0
 14 15  1  6  0  0  0
 14 17  1  0  0  0  0
 14 13  1  0  0  0  0
 16 15  1  0  0  0  0
 18 17  1  0  0  0  0
 18 20  1  0  0  0  0
 20 19  1  0  0  0  0
M  END
>  <MODEL>
8

>  <REMARK>
 VINA RESULT:      -4.0      3.339      9.435
  Name = s3_orig_f12_ligand
  12 active torsions:
  status: ('A' for Active; 'I' for Inactive)
    1  A    between atoms: C_1  and  C_2
    2  A    between atoms: C_2  and  C_3
    3  A    between atoms: C_3  and  C_4
    4  A    between atoms: C_4  and  C_5
    5  A    between atoms: C_5  and  C_6
    6  A    between atoms: C_5  and  O_8
    7  A    between atoms: C_6  and  C_7
    8  A    between atoms: O_8  and  C_9
    9  A    between atoms: C_9  and  C_11
   10  A    between atoms: C_12  and  C_13
   11  A    between atoms: C_16  and  O_17
   12  A    between atoms: O_17  and  C_18
                            x       y       z     vdW  Elec       q    Type
                         _______ _______ _______ _____ _____    ______ ____

>  <TORSDO>
F 9

$$$$
s3_orig_f12_ligand
 OpenBabel10092621073D

 20 20  0  0  1  0  0  0  0  0999 V2000
    2.0350    6.5080    3.0720 C   0  0  0  0  0  0  0  0  0  0  0  0
    1.7940    7.6230    2.6870 O   0  0  0  0  0  0  0  0  0  0  0  0
    3.2350    5.7330    2.6790 C   0  0  0  0  0  3  0  0  0  0  0  0
    3.9630    5.0610    3.5690 C   0  0  0  0  0  3  0  0  0  0  0  0
    5.2260    4.3490    3.2510 C   0  0  0  0  0  0  0  0  0  0  0  0
    5.1710    3.1420    2.5740 C   0  0  0  0  0  3  0  0  0  0  0  0
    6.3310    2.4140    2.3340 C   0  0  0  0  0  3  0  0  0  0  0  0
    7.5640    2.9070    2.7090 C   0  0  0  0  0  0  0  0  0  0  0  0
    7.6180    4.1260    3.3330 C   0  0  0  0  0  3  0  0  0  0  0  0
    6.4550    4.8450    3.6050 C   0  0  0  0  0  3  0  0  0  0  0  0
    8.7420    2.2270    2.4770 O   0  0  0  0  0  0  0  0  0  0  0  0
    8.6930    1.1020    1.6190 C   0  0  0  0  0  1  0  0  0  0  0  0
    1.2170    5.9540    3.8180 O   0  0  0  0  0  0  0  0  0  0  0  0
    0.2410    5.2090    4.2990 C   0  0  1  0  0  3  0  0  0  0  0  0
    0.8000    4.1560    5.2380 C   0  0  0  0  0  2  0  0  0  0  0  0
    1.4160    4.7240    6.5130 C   0  0  0  0  0  1  0  0  0  0  0  0
   -0.8050    6.0460    5.0190 C   0  0  0  0  0  2  0  0  0  0  0  0
   -1.4300    7.1190    4.1890 C   0  0  0  0  0  2  0  0  0  0  0  0
   -0.2140    8.4610    5.9120 C   0  0  0  0  0  1  0  0  0  0  0  0
   -1.0870    8.5050    4.6760 C   0  0  0  0  0  2  0  0  0  0  0  0
  1 13  1  0  0  0  0
  2  1  2  0  0  0  0
  3  1  1  0  0  0  0
  3  4  2  0  0  0  0
  5  4  1  0  0  0  0
  5 10  1  0  0  0  0
  6  5  2  0  0  0  0
  7  6  1  0  0  0  0
  7  8  2  0  0  0  0
  8  9  1  0  0  0  0
  9 10  2  0  0  0  0
 11  8  1  0  0  0  0
 12 11  1  0  0  0  0
 13 14  1  0  0  0  0
 14 17  1  1  0  0  0
 14 15  1  0  0  0  0
 15 16  1  0  0  0  0
 18 20  1  0  0  0  0
 18 17  1  0  0  0  0
 20 19  1  0  0  0  0
M  END
>  <MODEL>
9

>  <REMARK>
 VINA RESULT:      -3.9      1.821      2.288
  Name = s3_orig_f12_ligand
  12 active torsions:
  status: ('A' for Active; 'I' for Inactive)
    1  A    between atoms: C_1  and  C_2
    2  A    between atoms: C_2  and  C_3
    3  A    between atoms: C_3  and  C_4
    4  A    between atoms: C_4  and  C_5
    5  A    between atoms: C_5  and  C_6
    6  A    between atoms: C_5  and  O_8
    7  A    between atoms: C_6  and  C_7
    8  A    between atoms: O_8  and  C_9
    9  A    between atoms: C_9  and  C_11
   10  A    between atoms: C_12  and  C_13
   11  A    between atoms: C_16  and  O_17
   12  A    between atoms: O_17  and  C_18
                            x       y       z     vdW  Elec       q    Type
                         _______ _______ _______ _____ _____    ______ ____

>  <TORSDO>
F 9

$$$$
