s3_esm2_f4_ligand
     RDKit          3D

 44 44  0  0  0  0  0  0  0  0999 V2000
   -9.0993   -4.8061    5.9104 C   0  0  0  0  0  0  0  0  0  0  0  0
   -9.4009   -4.6778    4.4139 C   0  0  0  0  0  0  0  0  0  0  0  0
   -8.3627   -3.8194    3.7361 C   0  0  0  0  0  0  0  0  0  0  0  0
   -8.6837   -3.6335    2.2797 C   0  0  0  0  0  0  0  0  0  0  0  0
   -7.8218   -2.5470    1.6518 C   0  0  2  0  0  0  0  0  0  0  0  0
   -8.6641   -1.7141    0.7148 C   0  0  0  0  0  0  0  0  0  0  0  0
   -7.9773   -1.3275   -0.5614 C   0  0  0  0  0  0  0  0  0  0  0  0
   -6.7552   -3.1502    0.9425 O   0  0  0  0  0  0  0  0  0  0  0  0
   -5.4950   -3.0608    1.4412 C   0  0  0  0  0  0  0  0  0  0  0  0
   -5.2831   -2.7127    2.5710 O   0  0  0  0  0  0  0  0  0  0  0  0
   -4.4324   -3.3902    0.4959 C   0  0  0  0  0  0  0  0  0  0  0  0
   -4.7011   -4.0242   -0.6392 C   0  0  0  0  0  0  0  0  0  0  0  0
   -3.7132   -4.2013   -1.7258 C   0  0  0  0  0  0  0  0  0  0  0  0
   -2.5267   -3.4965   -1.7372 C   0  0  0  0  0  0  0  0  0  0  0  0
   -1.6376   -3.6577   -2.7840 C   0  0  0  0  0  0  0  0  0  0  0  0
   -1.9165   -4.5051   -3.8142 C   0  0  0  0  0  0  0  0  0  0  0  0
   -1.0277   -4.6276   -4.8241 O   0  0  0  0  0  0  0  0  0  0  0  0
   -1.4276   -5.2204   -6.0487 C   0  0  0  0  0  0  0  0  0  0  0  0
   -3.0988   -5.2162   -3.8008 C   0  0  0  0  0  0  0  0  0  0  0  0
   -3.9872   -5.0595   -2.7570 C   0  0  0  0  0  0  0  0  0  0  0  0
   -9.0919   -5.8692    6.1931 H   0  0  0  0  0  0  0  0  0  0  0  0
   -8.1158   -4.3627    6.1256 H   0  0  0  0  0  0  0  0  0  0  0  0
   -9.8734   -4.2786    6.4870 H   0  0  0  0  0  0  0  0  0  0  0  0
   -9.3972   -5.6784    3.9571 H   0  0  0  0  0  0  0  0  0  0  0  0
  -10.3872   -4.2071    4.2896 H   0  0  0  0  0  0  0  0  0  0  0  0
   -8.3340   -2.8351    4.2264 H   0  0  0  0  0  0  0  0  0  0  0  0
   -7.3866   -4.3199    3.8183 H   0  0  0  0  0  0  0  0  0  0  0  0
   -8.5054   -4.5813    1.7507 H   0  0  0  0  0  0  0  0  0  0  0  0
   -9.7375   -3.3296    2.1950 H   0  0  0  0  0  0  0  0  0  0  0  0
   -7.4112   -1.8954    2.4373 H   0  0  0  0  0  0  0  0  0  0  0  0
   -9.5655   -2.2903    0.4589 H   0  0  0  0  0  0  0  0  0  0  0  0
   -8.8890   -0.7771    1.2454 H   0  0  0  0  0  0  0  0  0  0  0  0
   -7.8847   -2.2110   -1.2101 H   0  0  0  0  0  0  0  0  0  0  0  0
   -8.5677   -0.5550   -1.0761 H   0  0  0  0  0  0  0  0  0  0  0  0
   -6.9760   -0.9329   -0.3340 H   0  0  0  0  0  0  0  0  0  0  0  0
   -3.3943   -3.1090    0.7274 H   0  0  0  0  0  0  0  0  0  0  0  0
   -5.7103   -4.4392   -0.7788 H   0  0  0  0  0  0  0  0  0  0  0  0
   -2.2884   -2.8069   -0.9141 H   0  0  0  0  0  0  0  0  0  0  0  0
   -0.6927   -3.0945   -2.7850 H   0  0  0  0  0  0  0  0  0  0  0  0
   -1.4129   -6.3158   -5.9479 H   0  0  0  0  0  0  0  0  0  0  0  0
   -2.4457   -4.8891   -6.3013 H   0  0  0  0  0  0  0  0  0  0  0  0
   -0.7344   -4.9163   -6.8469 H   0  0  0  0  0  0  0  0  0  0  0  0
   -3.3332   -5.9085   -4.6229 H   0  0  0  0  0  0  0  0  0  0  0  0
   -4.9271   -5.6309   -2.7531 H   0  0  0  0  0  0  0  0  0  0  0  0
  2  1  1  0
  3  2  1  0
  4  3  1  0
  5  4  1  0
  6  5  1  0
  7  6  1  0
  8  5  1  0
  9  8  1  0
 10  9  2  0
 11  9  1  0
 12 11  2  3
 13 12  1  0
 14 13  1  0
 15 14  2  0
 16 15  1  0
 17 16  1  0
 18 17  1  0
 19 16  2  0
 20 19  1  0
 20 13  2  0
  1 21  1  0
  1 22  1  0
  1 23  1  0
  2 24  1  0
  2 25  1  0
  3 26  1  0
  3 27  1  0
  4 28  1  0
  4 29  1  0
  5 30  1  1
  6 31  1  0
  6 32  1  0
  7 33  1  0
  7 34  1  0
  7 35  1  0
 11 36  1  0
 12 37  1  0
 14 38  1  0
 15 39  1  0
 18 40  1  0
 18 41  1  0
 18 42  1  0
 19 43  1  0
 20 44  1  0
M  END
$$$$
