s3_esm2_f4_ligand
 OpenBabel10092621053D

 20 20  0  0  1  0  0  0  0  0999 V2000
   -4.3980   -5.6360    0.1370 C   0  0  0  0  0  0  0  0  0  0  0  0
   -5.2580   -5.4320    0.9510 O   0  0  0  0  0  0  0  0  0  0  0  0
   -4.3130   -6.8680   -0.6410 C   0  0  0  0  0  3  0  0  0  0  0  0
   -5.3570   -7.3120   -1.3300 C   0  0  0  0  0  3  0  0  0  0  0  0
   -5.2790   -8.4290   -2.2970 C   0  0  0  0  0  0  0  0  0  0  0  0
   -6.4080   -9.1160   -2.6910 C   0  0  0  0  0  3  0  0  0  0  0  0
   -6.2990  -10.1780   -3.5700 C   0  0  0  0  0  3  0  0  0  0  0  0
   -5.0860  -10.5610   -4.0560 C   0  0  0  0  0  0  0  0  0  0  0  0
   -3.9560   -9.8710   -3.6700 C   0  0  0  0  0  3  0  0  0  0  0  0
   -4.0610   -8.8100   -2.7940 C   0  0  0  0  0  3  0  0  0  0  0  0
   -5.0180  -11.6100   -4.9050 O   0  0  0  0  0  0  0  0  0  0  0  0
   -4.3550  -12.7990   -4.5090 C   0  0  0  0  0  1  0  0  0  0  0  0
   -3.4110   -4.7350   -0.1040 O   0  0  0  0  0  0  0  0  0  0  0  0
   -3.3570   -4.0900   -1.3630 C   0  0  1  0  0  3  0  0  0  0  0  0
   -3.3340   -2.5910   -1.1800 C   0  0  0  0  0  2  0  0  0  0  0  0
   -4.6890   -1.9570   -1.0670 C   0  0  0  0  0  1  0  0  0  0  0  0
   -2.0990   -4.5320   -2.0990 C   0  0  0  0  0  2  0  0  0  0  0  0
   -1.5450   -3.4280   -2.9540 C   0  0  0  0  0  2  0  0  0  0  0  0
    0.9450   -3.6340   -2.9820 C   0  0  0  0  0  1  0  0  0  0  0  0
   -0.3540   -3.9050   -3.7470 C   0  0  0  0  0  2  0  0  0  0  0  0
  1  2  2  0  0  0  0
  3  1  1  0  0  0  0
  4  3  2  0  0  0  0
  5  4  1  0  0  0  0
  6  5  1  0  0  0  0
  7  6  2  0  0  0  0
  8  9  2  0  0  0  0
  8  7  1  0  0  0  0
  9 10  1  0  0  0  0
 10  5  2  0  0  0  0
 11 12  1  0  0  0  0
 11  8  1  0  0  0  0
 13  1  1  0  0  0  0
 14 17  1  1  0  0  0
 14 15  1  0  0  0  0
 14 13  1  0  0  0  0
 15 16  1  0  0  0  0
 18 17  1  0  0  0  0
 20 19  1  0  0  0  0
 20 18  1  0  0  0  0
M  END
>  <MODEL>
1

>  <REMARK>
 VINA RESULT:      -5.1      0.000      0.000
  Name = s3_esm2_f4_ligand
  12 active torsions:
  status: ('A' for Active; 'I' for Inactive)
    1  A    between atoms: C_1  and  C_2
    2  A    between atoms: C_2  and  C_3
    3  A    between atoms: C_3  and  C_4
    4  A    between atoms: C_4  and  C_5
    5  A    between atoms: C_5  and  C_6
    6  A    between atoms: C_5  and  O_8
    7  A    between atoms: C_6  and  C_7
    8  A    between atoms: O_8  and  C_9
    9  A    between atoms: C_9  and  C_11
   10  A    between atoms: C_12  and  C_13
   11  A    between atoms: C_16  and  O_17
   12  A    between atoms: O_17  and  C_18
                            x       y       z     vdW  Elec       q    Type
                         _______ _______ _______ _____ _____    ______ ____

>  <TORSDO>
F 9

$$$$
s3_esm2_f4_ligand
 OpenBabel10092621053D

 20 20  0  0  1  0  0  0  0  0999 V2000
   -4.2640   -3.2250   -1.4700 C   0  0  0  0  0  0  0  0  0  0  0  0
   -4.5740   -2.2090   -0.9090 O   0  0  0  0  0  0  0  0  0  0  0  0
   -3.0880   -3.3330   -2.3290 C   0  0  0  0  0  3  0  0  0  0  0  0
   -2.1160   -4.1930   -2.0490 C   0  0  0  0  0  3  0  0  0  0  0  0
   -1.0080   -4.5000   -2.9790 C   0  0  0  0  0  0  0  0  0  0  0  0
   -1.0500   -5.6060   -3.8030 C   0  0  0  0  0  3  0  0  0  0  0  0
    0.0160   -5.8860   -4.6380 C   0  0  0  0  0  3  0  0  0  0  0  0
    1.1170   -5.0830   -4.6600 C   0  0  0  0  0  0  0  0  0  0  0  0
    1.1580   -3.9730   -3.8430 C   0  0  0  0  0  3  0  0  0  0  0  0
    0.0950   -3.6900   -3.0100 C   0  0  0  0  0  3  0  0  0  0  0  0
    2.1420   -5.3960   -5.4820 O   0  0  0  0  0  0  0  0  0  0  0  0
    2.3430   -4.6540   -6.6740 C   0  0  0  0  0  1  0  0  0  0  0  0
   -5.0080   -4.3560   -1.3680 O   0  0  0  0  0  0  0  0  0  0  0  0
   -5.0750   -5.0280   -0.1240 C   0  0  1  0  0  3  0  0  0  0  0  0
   -6.5150   -5.1840    0.3060 C   0  0  0  0  0  2  0  0  0  0  0  0
   -6.7040   -5.4070    1.7770 C   0  0  0  0  0  1  0  0  0  0  0  0
   -4.4340   -6.4020   -0.2620 C   0  0  0  0  0  2  0  0  0  0  0  0
   -5.3020   -7.3380   -1.0540 C   0  0  0  0  0  2  0  0  0  0  0  0
   -4.2060   -7.2990   -3.2980 C   0  0  0  0  0  1  0  0  0  0  0  0
   -4.4830   -8.1300   -2.0420 C   0  0  0  0  0  2  0  0  0  0  0  0
  1 13  1  0  0  0  0
  1  2  2  0  0  0  0
  3  4  2  0  0  0  0
  3  1  1  0  0  0  0
  5  4  1  0  0  0  0
  6  5  2  0  0  0  0
  7  6  1  0  0  0  0
  8  7  2  0  0  0  0
  8  9  1  0  0  0  0
  9 10  2  0  0  0  0
 10  5  1  0  0  0  0
 11  8  1  0  0  0  0
 12 11  1  0  0  0  0
 13 14  1  0  0  0  0
 14 17  1  6  0  0  0
 14 15  1  0  0  0  0
 15 16  1  0  0  0  0
 18 17  1  0  0  0  0
 19 20  1  0  0  0  0
 20 18  1  0  0  0  0
M  END
>  <MODEL>
2

>  <REMARK>
 VINA RESULT:      -5.1      2.704      6.130
  Name = s3_esm2_f4_ligand
  12 active torsions:
  status: ('A' for Active; 'I' for Inactive)
    1  A    between atoms: C_1  and  C_2
    2  A    between atoms: C_2  and  C_3
    3  A    between atoms: C_3  and  C_4
    4  A    between atoms: C_4  and  C_5
    5  A    between atoms: C_5  and  C_6
    6  A    between atoms: C_5  and  O_8
    7  A    between atoms: C_6  and  C_7
    8  A    between atoms: O_8  and  C_9
    9  A    between atoms: C_9  and  C_11
   10  A    between atoms: C_12  and  C_13
   11  A    between atoms: C_16  and  O_17
   12  A    between atoms: O_17  and  C_18
                            x       y       z     vdW  Elec       q    Type
                         _______ _______ _______ _____ _____    ______ ____

>  <TORSDO>
F 9

$$$$
s3_esm2_f4_ligand
 OpenBabel10092621053D

 20 20  0  0  1  0  0  0  0  0999 V2000
   -3.6510   -5.2480   -0.4500 C   0  0  0  0  0  0  0  0  0  0  0  0
   -4.1160   -5.2470    0.6580 O   0  0  0  0  0  0  0  0  0  0  0  0
   -3.9720   -6.2640   -1.4470 C   0  0  0  0  0  3  0  0  0  0  0  0
   -4.5830   -7.3910   -1.1000 C   0  0  0  0  0  3  0  0  0  0  0  0
   -5.1190   -8.3610   -2.0810 C   0  0  0  0  0  0  0  0  0  0  0  0
   -4.2860   -9.0380   -2.9470 C   0  0  0  0  0  3  0  0  0  0  0  0
   -4.8200   -9.9130   -3.8750 C   0  0  0  0  0  3  0  0  0  0  0  0
   -6.1650  -10.1180   -3.9510 C   0  0  0  0  0  0  0  0  0  0  0  0
   -6.9990   -9.4470   -3.0800 C   0  0  0  0  0  3  0  0  0  0  0  0
   -6.4690   -8.5750   -2.1520 C   0  0  0  0  0  3  0  0  0  0  0  0
   -6.6490  -10.9730   -4.8780 O   0  0  0  0  0  0  0  0  0  0  0  0
   -7.9340  -10.7550   -5.4370 C   0  0  0  0  0  1  0  0  0  0  0  0
   -2.7600   -4.3070   -0.8540 O   0  0  0  0  0  0  0  0  0  0  0  0
   -3.1350   -3.3890   -1.8650 C   0  0  1  0  0  3  0  0  0  0  0  0
   -3.5240   -2.0660   -1.2480 C   0  0  0  0  0  2  0  0  0  0  0  0
   -5.0030   -1.8430   -1.1340 C   0  0  0  0  0  1  0  0  0  0  0  0
   -1.9630   -3.1820   -2.8150 C   0  0  0  0  0  2  0  0  0  0  0  0
   -0.9660   -4.3010   -2.7110 C   0  0  0  0  0  2  0  0  0  0  0  0
    0.5760   -3.0200   -4.2020 C   0  0  0  0  0  1  0  0  0  0  0  0
    0.4420   -3.7890   -2.8840 C   0  0  0  0  0  2  0  0  0  0  0  0
  1  2  2  0  0  0  0
  3  4  2  0  0  0  0
  3  1  1  0  0  0  0
  5  4  1  0  0  0  0
  6  5  2  0  0  0  0
  7  6  1  0  0  0  0
  8  7  2  0  0  0  0
  8  9  1  0  0  0  0
  9 10  2  0  0  0  0
 10  5  1  0  0  0  0
 11  8  1  0  0  0  0
 12 11  1  0  0  0  0
 13  1  1  0  0  0  0
 14 17  1  6  0  0  0
 14 15  1  0  0  0  0
 14 13  1  0  0  0  0
 15 16  1  0  0  0  0
 17 18  1  0  0  0  0
 19 20  1  0  0  0  0
 20 18  1  0  0  0  0
M  END
>  <MODEL>
3

>  <REMARK>
 VINA RESULT:      -5.0      1.096      1.716
  Name = s3_esm2_f4_ligand
  12 active torsions:
  status: ('A' for Active; 'I' for Inactive)
    1  A    between atoms: C_1  and  C_2
    2  A    between atoms: C_2  and  C_3
    3  A    between atoms: C_3  and  C_4
    4  A    between atoms: C_4  and  C_5
    5  A    between atoms: C_5  and  C_6
    6  A    between atoms: C_5  and  O_8
    7  A    between atoms: C_6  and  C_7
    8  A    between atoms: O_8  and  C_9
    9  A    between atoms: C_9  and  C_11
   10  A    between atoms: C_12  and  C_13
   11  A    between atoms: C_16  and  O_17
   12  A    between atoms: O_17  and  C_18
                            x       y       z     vdW  Elec       q    Type
                         _______ _______ _______ _____ _____    ______ ____

>  <TORSDO>
F 9

$$$$
s3_esm2_f4_ligand
 OpenBabel10092621053D

 20 20  0  0  1  0  0  0  0  0999 V2000
   -5.0980   -1.9320   -1.0460 C   0  0  0  0  0  0  0  0  0  0  0  0
   -6.0290   -2.0790   -0.3020 O   0  0  0  0  0  0  0  0  0  0  0  0
   -4.4160   -0.6530   -1.2260 C   0  0  0  0  0  3  0  0  0  0  0  0
   -5.1020    0.4570   -1.4680 C   0  0  0  0  0  3  0  0  0  0  0  0
   -4.4960    1.8070   -1.4530 C   0  0  0  0  0  0  0  0  0  0  0  0
   -4.7480    2.7150   -2.4610 C   0  0  0  0  0  3  0  0  0  0  0  0
   -4.1400    3.9580   -2.4370 C   0  0  0  0  0  3  0  0  0  0  0  0
   -3.2900    4.3010   -1.4300 C   0  0  0  0  0  0  0  0  0  0  0  0
   -3.0430    3.3970   -0.4180 C   0  0  0  0  0  3  0  0  0  0  0  0
   -3.6490    2.1580   -0.4370 C   0  0  0  0  0  3  0  0  0  0  0  0
   -2.7080    5.5210   -1.4480 O   0  0  0  0  0  0  0  0  0  0  0  0
   -3.5130    6.6880   -1.4410 C   0  0  0  0  0  1  0  0  0  0  0  0
   -4.6200   -2.9500   -1.8060 O   0  0  0  0  0  0  0  0  0  0  0  0
   -3.3890   -3.5560   -1.4540 C   0  0  1  0  0  3  0  0  0  0  0  0
   -3.5680   -5.0490   -1.3080 C   0  0  0  0  0  2  0  0  0  0  0  0
   -4.0240   -5.4910    0.0510 C   0  0  0  0  0  1  0  0  0  0  0  0
   -2.3610   -3.2710   -2.5410 C   0  0  0  0  0  2  0  0  0  0  0  0
   -1.3750   -4.3960   -2.6750 C   0  0  0  0  0  2  0  0  0  0  0  0
    0.9930   -3.6530   -2.9580 C   0  0  0  0  0  1  0  0  0  0  0  0
   -0.2980   -4.0560   -3.6750 C   0  0  0  0  0  2  0  0  0  0  0  0
  1  2  2  0  0  0  0
  3  1  1  0  0  0  0
  4  5  1  0  0  0  0
  4  3  2  0  0  0  0
  5 10  1  0  0  0  0
  6  7  1  0  0  0  0
  6  5  2  0  0  0  0
  7  8  2  0  0  0  0
  8  9  1  0  0  0  0
 10  9  2  0  0  0  0
 11 12  1  0  0  0  0
 11  8  1  0  0  0  0
 13 14  1  0  0  0  0
 13  1  1  0  0  0  0
 14 17  1  6  0  0  0
 14 15  1  0  0  0  0
 15 16  1  0  0  0  0
 18 17  1  0  0  0  0
 20 19  1  0  0  0  0
 20 18  1  0  0  0  0
M  END
>  <MODEL>
4

>  <REMARK>
 VINA RESULT:      -4.9      4.375      9.642
  Name = s3_esm2_f4_ligand
  12 active torsions:
  status: ('A' for Active; 'I' for Inactive)
    1  A    between atoms: C_1  and  C_2
    2  A    between atoms: C_2  and  C_3
    3  A    between atoms: C_3  and  C_4
    4  A    between atoms: C_4  and  C_5
    5  A    between atoms: C_5  and  C_6
    6  A    between atoms: C_5  and  O_8
    7  A    between atoms: C_6  and  C_7
    8  A    between atoms: O_8  and  C_9
    9  A    between atoms: C_9  and  C_11
   10  A    between atoms: C_12  and  C_13
   11  A    between atoms: C_16  and  O_17
   12  A    between atoms: O_17  and  C_18
                            x       y       z     vdW  Elec       q    Type
                         _______ _______ _______ _____ _____    ______ ____

>  <TORSDO>
F 9

$$$$
s3_esm2_f4_ligand
 OpenBabel10092621053D

 20 20  0  0  1  0  0  0  0  0999 V2000
   -4.0440   -3.6090   -1.1230 C   0  0  0  0  0  0  0  0  0  0  0  0
   -4.9490   -2.8270   -1.2380 O   0  0  0  0  0  0  0  0  0  0  0  0
   -2.8190   -3.5310   -1.9120 C   0  0  0  0  0  3  0  0  0  0  0  0
   -2.0800   -4.6120   -2.1330 C   0  0  0  0  0  3  0  0  0  0  0  0
   -0.9500   -4.6440   -3.0880 C   0  0  0  0  0  0  0  0  0  0  0  0
    0.0410   -3.6860   -3.0570 C   0  0  0  0  0  3  0  0  0  0  0  0
    1.0670   -3.7220   -3.9840 C   0  0  0  0  0  3  0  0  0  0  0  0
    1.1130   -4.6950   -4.9370 C   0  0  0  0  0  0  0  0  0  0  0  0
    0.1260   -5.6590   -4.9650 C   0  0  0  0  0  3  0  0  0  0  0  0
   -0.8970   -5.6260   -4.0410 C   0  0  0  0  0  3  0  0  0  0  0  0
    2.1250   -4.6910   -5.8320 O   0  0  0  0  0  0  0  0  0  0  0  0
    2.2090   -3.6580   -6.7990 C   0  0  0  0  0  1  0  0  0  0  0  0
   -4.1060   -4.6540   -0.2580 O   0  0  0  0  0  0  0  0  0  0  0  0
   -5.1350   -5.6150   -0.4080 C   0  0  1  0  0  3  0  0  0  0  0  0
   -4.5450   -6.9540   -0.7810 C   0  0  0  0  0  2  0  0  0  0  0  0
   -5.4380   -7.8140   -1.6260 C   0  0  0  0  0  1  0  0  0  0  0  0
   -5.8960   -5.7430    0.9050 C   0  0  0  0  0  2  0  0  0  0  0  0
   -6.9720   -4.7010    1.0210 C   0  0  0  0  0  2  0  0  0  0  0  0
   -6.6170   -5.4470    3.3790 C   0  0  0  0  0  1  0  0  0  0  0  0
   -7.4850   -4.6080    2.4360 C   0  0  0  0  0  2  0  0  0  0  0  0
  1 13  1  0  0  0  0
  2  1  2  0  0  0  0
  3  1  1  0  0  0  0
  4  3  2  0  0  0  0
  5  6  1  0  0  0  0
  5  4  1  0  0  0  0
  7  6  2  0  0  0  0
  8  7  1  0  0  0  0
  9  8  2  0  0  0  0
  9 10  1  0  0  0  0
 10  5  2  0  0  0  0
 11  8  1  0  0  0  0
 12 11  1  0  0  0  0
 14 15  1  1  0  0  0
 14 13  1  0  0  0  0
 14 17  1  0  0  0  0
 16 15  1  0  0  0  0
 17 18  1  0  0  0  0
 18 20  1  0  0  0  0
 20 19  1  0  0  0  0
M  END
>  <MODEL>
5

>  <REMARK>
 VINA RESULT:      -4.7      2.849      6.856
  Name = s3_esm2_f4_ligand
  12 active torsions:
  status: ('A' for Active; 'I' for Inactive)
    1  A    between atoms: C_1  and  C_2
    2  A    between atoms: C_2  and  C_3
    3  A    between atoms: C_3  and  C_4
    4  A    between atoms: C_4  and  C_5
    5  A    between atoms: C_5  and  C_6
    6  A    between atoms: C_5  and  O_8
    7  A    between atoms: C_6  and  C_7
    8  A    between atoms: O_8  and  C_9
    9  A    between atoms: C_9  and  C_11
   10  A    between atoms: C_12  and  C_13
   11  A    between atoms: C_16  and  O_17
   12  A    between atoms: O_17  and  C_18
                            x       y       z     vdW  Elec       q    Type
                         _______ _______ _______ _____ _____    ______ ____

>  <TORSDO>
F 9

$$$$
s3_esm2_f4_ligand
 OpenBabel10092621053D

 20 20  0  0  1  0  0  0  0  0999 V2000
   -3.8570   -4.7860   -0.6000 C   0  0  0  0  0  0  0  0  0  0  0  0
   -3.8010   -5.6760    0.2050 O   0  0  0  0  0  0  0  0  0  0  0  0
   -2.6880   -4.2860   -1.3170 C   0  0  0  0  0  3  0  0  0  0  0  0
   -2.2950   -4.8460   -2.4550 C   0  0  0  0  0  3  0  0  0  0  0  0
   -1.2550   -4.2640   -3.3320 C   0  0  0  0  0  0  0  0  0  0  0  0
   -0.0530   -3.8210   -2.8210 C   0  0  0  0  0  3  0  0  0  0  0  0
    0.8860   -3.2510   -3.6600 C   0  0  0  0  0  3  0  0  0  0  0  0
    0.6410   -3.1150   -4.9940 C   0  0  0  0  0  0  0  0  0  0  0  0
   -0.5570   -3.5640   -5.5080 C   0  0  0  0  0  3  0  0  0  0  0  0
   -1.4950   -4.1360   -4.6740 C   0  0  0  0  0  3  0  0  0  0  0  0
    1.5790   -2.5430   -5.7800 O   0  0  0  0  0  0  0  0  0  0  0  0
    1.5820   -1.1380   -5.9690 C   0  0  0  0  0  1  0  0  0  0  0  0
   -5.0220   -4.1520   -0.8870 O   0  0  0  0  0  0  0  0  0  0  0  0
   -5.0000   -3.0130   -1.7280 C   0  0  1  0  0  3  0  0  0  0  0  0
   -5.9920   -3.1790   -2.8550 C   0  0  0  0  0  2  0  0  0  0  0  0
   -5.4350   -2.8970   -4.2190 C   0  0  0  0  0  1  0  0  0  0  0  0
   -5.3610   -1.7800   -0.9100 C   0  0  0  0  0  2  0  0  0  0  0  0
   -4.3960   -0.6540   -1.1570 C   0  0  0  0  0  2  0  0  0  0  0  0
   -6.5690    0.4020   -1.7960 C   0  0  0  0  0  1  0  0  0  0  0  0
   -5.0460    0.4500   -1.9530 C   0  0  0  0  0  2  0  0  0  0  0  0
  1  2  2  0  0  0  0
  3  1  1  0  0  0  0
  4  3  2  0  0  0  0
  5  6  1  0  0  0  0
  5  4  1  0  0  0  0
  7  6  2  0  0  0  0
  8  7  1  0  0  0  0
  9  8  2  0  0  0  0
  9 10  1  0  0  0  0
 10  5  2  0  0  0  0
 11  8  1  0  0  0  0
 12 11  1  0  0  0  0
 13  1  1  0  0  0  0
 14 15  1  6  0  0  0
 14 17  1  0  0  0  0
 14 13  1  0  0  0  0
 16 15  1  0  0  0  0
 18 17  1  0  0  0  0
 20 19  1  0  0  0  0
 20 18  1  0  0  0  0
M  END
>  <MODEL>
6

>  <REMARK>
 VINA RESULT:      -4.7      4.146      6.691
  Name = s3_esm2_f4_ligand
  12 active torsions:
  status: ('A' for Active; 'I' for Inactive)
    1  A    between atoms: C_1  and  C_2
    2  A    between atoms: C_2  and  C_3
    3  A    between atoms: C_3  and  C_4
    4  A    between atoms: C_4  and  C_5
    5  A    between atoms: C_5  and  C_6
    6  A    between atoms: C_5  and  O_8
    7  A    between atoms: C_6  and  C_7
    8  A    between atoms: O_8  and  C_9
    9  A    between atoms: C_9  and  C_11
   10  A    between atoms: C_12  and  C_13
   11  A    between atoms: C_16  and  O_17
   12  A    between atoms: O_17  and  C_18
                            x       y       z     vdW  Elec       q    Type
                         _______ _______ _______ _____ _____    ______ ____

>  <TORSDO>
F 9

$$$$
s3_esm2_f4_ligand
 OpenBabel10092621053D

 20 20  0  0  1  0  0  0  0  0999 V2000
   -3.7660   -5.1690   -0.8050 C   0  0  0  0  0  0  0  0  0  0  0  0
   -3.6500   -5.2850    0.3850 O   0  0  0  0  0  0  0  0  0  0  0  0
   -2.8340   -4.4000   -1.6250 C   0  0  0  0  0  3  0  0  0  0  0  0
   -1.8570   -5.0020   -2.2940 C   0  0  0  0  0  3  0  0  0  0  0  0
   -1.0150   -4.3160   -3.2980 C   0  0  0  0  0  0  0  0  0  0  0  0
    0.2100   -3.7800   -2.9600 C   0  0  0  0  0  3  0  0  0  0  0  0
    0.9590   -3.1140   -3.9120 C   0  0  0  0  0  3  0  0  0  0  0  0
    0.5030   -2.9750   -5.1890 C   0  0  0  0  0  0  0  0  0  0  0  0
   -0.7180   -3.5170   -5.5310 C   0  0  0  0  0  3  0  0  0  0  0  0
   -1.4670   -4.1830   -4.5840 C   0  0  0  0  0  3  0  0  0  0  0  0
    1.2600   -2.3090   -6.0890 O   0  0  0  0  0  0  0  0  0  0  0  0
    2.2580   -3.0000   -6.8220 C   0  0  0  0  0  1  0  0  0  0  0  0
   -4.8010   -5.7280   -1.4830 O   0  0  0  0  0  0  0  0  0  0  0  0
   -5.1640   -7.0680   -1.2040 C   0  0  1  0  0  3  0  0  0  0  0  0
   -6.5820   -7.1270   -0.6880 C   0  0  0  0  0  2  0  0  0  0  0  0
   -7.4480   -8.1500   -1.3610 C   0  0  0  0  0  1  0  0  0  0  0  0
   -5.0530   -7.8930   -2.4800 C   0  0  0  0  0  2  0  0  0  0  0  0
   -3.7020   -8.5380   -2.6040 C   0  0  0  0  0  2  0  0  0  0  0  0
   -1.9310   -8.0380   -4.2940 C   0  0  0  0  0  1  0  0  0  0  0  0
   -3.3000   -8.6800   -4.0500 C   0  0  0  0  0  2  0  0  0  0  0  0
  1  2  2  0  0  0  0
  3  1  1  0  0  0  0
  4  3  2  0  0  0  0
  5  6  1  0  0  0  0
  5  4  1  0  0  0  0
  7  6  2  0  0  0  0
  8  7  1  0  0  0  0
  9  8  2  0  0  0  0
  9 10  1  0  0  0  0
 10  5  2  0  0  0  0
 11  8  1  0  0  0  0
 12 11  1  0  0  0  0
 13 14  1  0  0  0  0
 13  1  1  0  0  0  0
 14 17  1  6  0  0  0
 14 15  1  0  0  0  0
 16 15  1  0  0  0  0
 18 17  1  0  0  0  0
 19 20  1  0  0  0  0
 20 18  1  0  0  0  0
M  END
>  <MODEL>
7

>  <REMARK>
 VINA RESULT:      -4.7      2.404      6.700
  Name = s3_esm2_f4_ligand
  12 active torsions:
  status: ('A' for Active; 'I' for Inactive)
    1  A    between atoms: C_1  and  C_2
    2  A    between atoms: C_2  and  C_3
    3  A    between atoms: C_3  and  C_4
    4  A    between atoms: C_4  and  C_5
    5  A    between atoms: C_5  and  C_6
    6  A    between atoms: C_5  and  O_8
    7  A    between atoms: C_6  and  C_7
    8  A    between atoms: O_8  and  C_9
    9  A    between atoms: C_9  and  C_11
   10  A    between atoms: C_12  and  C_13
   11  A    between atoms: C_16  and  O_17
   12  A    between atoms: O_17  and  C_18
                            x       y       z     vdW  Elec       q    Type
                         _______ _______ _______ _____ _____    ______ ____

>  <TORSDO>
F 9

$$$$
s3_esm2_f4_ligand
 OpenBabel10092621053D

 20 20  0  0  1  0  0  0  0  0999 V2000
   -5.0960   -5.7270   -0.3850 C   0  0  0  0  0  0  0  0  0  0  0  0
   -5.9350   -6.1580   -1.1300 O   0  0  0  0  0  0  0  0  0  0  0  0
   -5.3180   -5.5470    1.0460 C   0  0  0  0  0  3  0  0  0  0  0  0
   -6.5470   -5.5300    1.5490 C   0  0  0  0  0  3  0  0  0  0  0  0
   -6.8330   -5.5600    3.0000 C   0  0  0  0  0  0  0  0  0  0  0  0
   -5.8140   -5.5740    3.9300 C   0  0  0  0  0  3  0  0  0  0  0  0
   -6.1120   -5.6370    5.2790 C   0  0  0  0  0  3  0  0  0  0  0  0
   -7.4040   -5.6880    5.7080 C   0  0  0  0  0  0  0  0  0  0  0  0
   -8.4240   -5.6670    4.7800 C   0  0  0  0  0  3  0  0  0  0  0  0
   -8.1300   -5.6020    3.4340 C   0  0  0  0  0  3  0  0  0  0  0  0
   -7.6550   -5.7600    7.0340 O   0  0  0  0  0  0  0  0  0  0  0  0
   -7.6670   -4.5760    7.8150 C   0  0  0  0  0  1  0  0  0  0  0  0
   -3.8710   -5.3450   -0.8300 O   0  0  0  0  0  0  0  0  0  0  0  0
   -3.7720   -4.2670   -1.7420 C   0  0  1  0  0  3  0  0  0  0  0  0
   -3.3850   -3.0030   -1.0130 C   0  0  0  0  0  2  0  0  0  0  0  0
   -4.1720   -1.7890   -1.4110 C   0  0  0  0  0  1  0  0  0  0  0  0
   -2.7180   -4.5940   -2.7910 C   0  0  0  0  0  2  0  0  0  0  0  0
   -1.3700   -4.0560   -2.4030 C   0  0  0  0  0  2  0  0  0  0  0  0
    0.9700   -3.6390   -3.1730 C   0  0  0  0  0  1  0  0  0  0  0  0
   -0.3290   -4.4070   -3.4360 C   0  0  0  0  0  2  0  0  0  0  0  0
  1  3  1  0  0  0  0
  2  1  2  0  0  0  0
  3  4  2  0  0  0  0
  4  5  1  0  0  0  0
  5 10  2  0  0  0  0
  5  6  1  0  0  0  0
  6  7  2  0  0  0  0
  7  8  1  0  0  0  0
  8 11  1  0  0  0  0
  9  8  2  0  0  0  0
 10  9  1  0  0  0  0
 11 12  1  0  0  0  0
 13  1  1  0  0  0  0
 14 17  1  6  0  0  0
 14 15  1  0  0  0  0
 14 13  1  0  0  0  0
 16 15  1  0  0  0  0
 17 18  1  0  0  0  0
 20 19  1  0  0  0  0
 20 18  1  0  0  0  0
M  END
>  <MODEL>
8

>  <REMARK>
 VINA RESULT:      -4.6      3.838      6.842
  Name = s3_esm2_f4_ligand
  12 active torsions:
  status: ('A' for Active; 'I' for Inactive)
    1  A    between atoms: C_1  and  C_2
    2  A    between atoms: C_2  and  C_3
    3  A    between atoms: C_3  and  C_4
    4  A    between atoms: C_4  and  C_5
    5  A    between atoms: C_5  and  C_6
    6  A    between atoms: C_5  and  O_8
    7  A    between atoms: C_6  and  C_7
    8  A    between atoms: O_8  and  C_9
    9  A    between atoms: C_9  and  C_11
   10  A    between atoms: C_12  and  C_13
   11  A    between atoms: C_16  and  O_17
   12  A    between atoms: O_17  and  C_18
                            x       y       z     vdW  Elec       q    Type
                         _______ _______ _______ _____ _____    ______ ____

>  <TORSDO>
F 9

$$$$
s3_esm2_f4_ligand
 OpenBabel10092621053D

 20 20  0  0  1  0  0  0  0  0999 V2000
   -4.1410   -5.0920   -0.7300 C   0  0  0  0  0  0  0  0  0  0  0  0
   -3.9090   -5.5250    0.3660 O   0  0  0  0  0  0  0  0  0  0  0  0
   -3.2020   -5.1960   -1.8430 C   0  0  0  0  0  3  0  0  0  0  0  0
   -2.1460   -4.3960   -1.9200 C   0  0  0  0  0  3  0  0  0  0  0  0
   -1.0520   -4.5850   -2.8990 C   0  0  0  0  0  0  0  0  0  0  0  0
   -1.0850   -5.6110   -3.8200 C   0  0  0  0  0  3  0  0  0  0  0  0
   -0.0320   -5.7830   -4.7000 C   0  0  0  0  0  3  0  0  0  0  0  0
    1.0460   -4.9500   -4.6710 C   0  0  0  0  0  0  0  0  0  0  0  0
    1.0770   -3.9180   -3.7570 C   0  0  0  0  0  3  0  0  0  0  0  0
    0.0280   -3.7430   -2.8790 C   0  0  0  0  0  3  0  0  0  0  0  0
    2.0600   -5.1560   -5.5410 O   0  0  0  0  0  0  0  0  0  0  0  0
    1.9080   -4.7900   -6.9020 C   0  0  0  0  0  1  0  0  0  0  0  0
   -5.2990   -4.4410   -1.0140 O   0  0  0  0  0  0  0  0  0  0  0  0
   -5.7480   -4.3840   -2.3550 C   0  0  1  0  0  3  0  0  0  0  0  0
   -6.9800   -5.2410   -2.5280 C   0  0  0  0  0  2  0  0  0  0  0  0
   -7.7220   -5.5270   -1.2570 C   0  0  0  0  0  1  0  0  0  0  0  0
   -6.0790   -2.9400   -2.7110 C   0  0  0  0  0  2  0  0  0  0  0  0
   -4.8600   -2.1940   -3.1750 C   0  0  0  0  0  2  0  0  0  0  0  0
   -3.8980   -1.3280   -1.0380 C   0  0  0  0  0  1  0  0  0  0  0  0
   -4.6270   -0.9630   -2.3350 C   0  0  0  0  0  2  0  0  0  0  0  0
  1  2  2  0  0  0  0
  3  1  1  0  0  0  0
  4  3  2  0  0  0  0
  5 10  1  0  0  0  0
  5  4  1  0  0  0  0
  6  5  2  0  0  0  0
  7  8  2  0  0  0  0
  7  6  1  0  0  0  0
  8  9  1  0  0  0  0
  9 10  2  0  0  0  0
 11  8  1  0  0  0  0
 12 11  1  0  0  0  0
 13  1  1  0  0  0  0
 14 17  1  1  0  0  0
 14 13  1  0  0  0  0
 15 14  1  0  0  0  0
 15 16  1  0  0  0  0
 18 17  1  0  0  0  0
 18 20  1  0  0  0  0
 20 19  1  0  0  0  0
M  END
>  <MODEL>
9

>  <REMARK>
 VINA RESULT:      -4.5      3.742      5.851
  Name = s3_esm2_f4_ligand
  12 active torsions:
  status: ('A' for Active; 'I' for Inactive)
    1  A    between atoms: C_1  and  C_2
    2  A    between atoms: C_2  and  C_3
    3  A    between atoms: C_3  and  C_4
    4  A    between atoms: C_4  and  C_5
    5  A    between atoms: C_5  and  C_6
    6  A    between atoms: C_5  and  O_8
    7  A    between atoms: C_6  and  C_7
    8  A    between atoms: O_8  and  C_9
    9  A    between atoms: C_9  and  C_11
   10  A    between atoms: C_12  and  C_13
   11  A    between atoms: C_16  and  O_17
   12  A    between atoms: O_17  and  C_18
                            x       y       z     vdW  Elec       q    Type
                         _______ _______ _______ _____ _____    ______ ____

>  <TORSDO>
F 9

$$$$
