ox1_esm1_f8_ligand
     RDKit          3D

 29 30  0  0  0  0  0  0  0  0999 V2000
    2.0170    1.2080   -4.9840 C   0  0  0  0  0  0  0  0  0  0  0  0
    2.0620   -0.0490   -4.3020 O   0  0  0  0  0  0  0  0  0  0  0  0
    2.8390   -0.2210   -3.1940 C   0  0  0  0  0  0  0  0  0  0  0  0
    2.8440   -1.4760   -2.5850 C   0  0  0  0  0  0  0  0  0  0  0  0
    3.6110   -1.6980   -1.4500 C   0  0  0  0  0  0  0  0  0  0  0  0
    4.3710   -0.6820   -0.8970 C   0  0  0  0  0  0  0  0  0  0  0  0
    5.1840   -0.9270    0.3380 C   0  0  0  0  0  0  0  0  0  0  0  0
    5.9790   -0.0700    0.7150 O   0  0  0  0  0  0  0  0  0  0  0  0
    5.0570   -2.2060    1.0980 C   0  0  0  0  0  0  0  0  0  0  0  0
    6.1270   -2.9980    1.3070 C   0  0  0  0  0  0  0  0  0  0  0  0
    6.0920   -4.1760    2.0310 C   0  0  0  0  0  0  0  0  0  0  0  0
    4.8900   -4.6000    2.5440 C   0  0  0  0  0  0  0  0  0  0  0  0
    3.7600   -3.8210    2.3390 C   0  0  0  0  0  0  0  0  0  0  0  0
    3.8540   -2.6330    1.6140 C   0  0  0  0  0  0  0  0  0  0  0  0
    4.3780    0.5880   -1.5100 C   0  0  0  0  0  0  0  0  0  0  0  0
    5.1410    1.5860   -0.9770 O   0  0  0  0  0  0  0  0  0  0  0  0
    3.6080    0.7970   -2.6530 C   0  0  0  0  0  0  0  0  0  0  0  0
    1.9878    2.0241   -4.2471 H   0  0  0  0  0  0  0  0  0  0  0  0
    2.9119    1.3153   -5.6146 H   0  0  0  0  0  0  0  0  0  0  0  0
    1.1167    1.2510   -5.6146 H   0  0  0  0  0  0  0  0  0  0  0  0
    2.2382   -2.2921   -3.0057 H   0  0  0  0  0  0  0  0  0  0  0  0
    3.6150   -2.6943   -0.9838 H   0  0  0  0  0  0  0  0  0  0  0  0
    7.0896   -2.6879    0.8743 H   0  0  0  0  0  0  0  0  0  0  0  0
    7.0087   -4.7620    2.1929 H   0  0  0  0  0  0  0  0  0  0  0  0
    4.8244   -5.5420    3.1082 H   0  0  0  0  0  0  0  0  0  0  0  0
    2.7902   -4.1403    2.7482 H   0  0  0  0  0  0  0  0  0  0  0  0
    2.9508   -2.0264    1.4516 H   0  0  0  0  0  0  0  0  0  0  0  0
    5.1520    2.4807   -1.4007 H   0  0  0  0  0  0  0  0  0  0  0  0
    3.6108    1.7865   -3.1336 H   0  0  0  0  0  0  0  0  0  0  0  0
  2  1  1  0
  3  2  1  0
  4  3  1  0
  5  4  2  0
  6  5  1  0
  7  6  1  0
  8  7  2  0
  9  7  1  0
 10  9  2  0
 11 10  1  0
 12 11  2  0
 13 12  1  0
 14 13  2  0
 14  9  1  0
 15  6  2  0
 16 15  1  0
 17 15  1  0
 17  3  2  0
  1 18  1  0
  1 19  1  0
  1 20  1  0
  4 21  1  0
  5 22  1  0
 10 23  1  0
 11 24  1  0
 12 25  1  0
 13 26  1  0
 14 27  1  0
 16 28  1  0
 17 29  1  0
M  END
$$$$
