bg33_3_ligand
 OpenBabel10092621163D

 20 20  0  0  1  0  0  0  0  0999 V2000
   -4.9160   -8.4680    3.4240 C   0  0  0  0  0  0  0  0  0  0  0  0
   -5.2580   -9.5110    3.9320 O   0  0  0  0  0  0  0  0  0  0  0  0
   -4.0590   -8.4300    2.1150 C   0  0  0  0  0  3  0  0  0  0  0  0
   -2.7520   -8.7710    2.1830 C   0  0  0  0  0  3  0  0  0  0  0  0
   -1.8740   -8.6690    1.0460 C   0  0  0  0  0  0  0  0  0  0  0  0
   -2.3260   -8.1910   -0.1650 C   0  0  0  0  0  3  0  0  0  0  0  0
   -1.5130   -8.0380   -1.2290 C   0  0  0  0  0  3  0  0  0  0  0  0
   -0.1870   -8.3790   -1.0890 C   0  0  0  0  0  0  0  0  0  0  0  0
    0.2860   -8.8860    0.0810 C   0  0  0  0  0  3  0  0  0  0  0  0
   -0.5640   -9.0240    1.1570 C   0  0  0  0  0  3  0  0  0  0  0  0
    0.6850   -8.2930   -2.1170 O   0  0  0  0  0  0  0  0  0  0  0  0
    1.9910   -7.8600   -1.7800 C   0  0  0  0  0  1  0  0  0  0  0  0
   -5.2570   -7.4000    4.0090 O   0  0  0  0  0  0  0  0  0  0  0  0
   -6.0570   -6.4400    3.2500 C   0  0  2  0  0  3  0  0  0  0  0  0
   -5.9840   -5.1460    3.9160 C   0  0  0  0  0  2  0  0  0  0  0  0
   -7.3250   -4.5150    4.1430 C   0  0  0  0  0  1  0  0  0  0  0  0
   -7.5010   -6.8980    3.1540 C   0  0  0  0  0  2  0  0  0  0  0  0
   -7.8210   -7.1200    1.6590 C   0  0  0  0  0  2  0  0  0  0  0  0
   -7.6030   -5.1500    0.1870 C   0  0  0  0  0  1  0  0  0  0  0  0
   -6.8820   -6.3960    0.7480 C   0  0  0  0  0  2  0  0  0  0  0  0
  1  2  2  0  0  0  0
  1 13  1  0  0  0  0
  3  4  2  0  0  0  0
  3  1  1  0  0  0  0
  5 10  1  0  0  0  0
  5  4  1  0  0  0  0
  6  5  2  0  0  0  0
  7  8  2  0  0  0  0
  7  6  1  0  0  0  0
  8  9  1  0  0  0  0
  9 10  2  0  0  0  0
 11 12  1  0  0  0  0
 11  8  1  0  0  0  0
 14 17  1  1  0  0  0
 14 15  1  0  0  0  0
 14 13  1  0  0  0  0
 15 16  1  0  0  0  0
 18 17  1  0  0  0  0
 19 20  1  0  0  0  0
 20 18  1  0  0  0  0
M  END
>  <MODEL>
1

>  <REMARK>
 VINA RESULT:      -4.4      0.000      0.000
  Name = bg33_3_ligand
  12 active torsions:
  status: ('A' for Active; 'I' for Inactive)
    1  A    between atoms: C_1  and  C_2
    2  A    between atoms: C_2  and  C_3
    3  A    between atoms: C_3  and  C_4
    4  A    between atoms: C_4  and  C_5
    5  A    between atoms: C_5  and  C_6
    6  A    between atoms: C_5  and  O_8
    7  A    between atoms: C_6  and  C_7
    8  A    between atoms: O_8  and  C_9
    9  A    between atoms: C_9  and  C_11
   10  A    between atoms: C_12  and  C_13
   11  A    between atoms: C_16  and  O_17
   12  A    between atoms: O_17  and  C_18
                            x       y       z     vdW  Elec       q    Type
                         _______ _______ _______ _____ _____    ______ ____

>  <TORSDO>
F 9

$$$$
bg33_3_ligand
 OpenBabel10092621163D

 20 20  0  0  1  0  0  0  0  0999 V2000
   -2.7100   -9.6830    1.9810 C   0  0  0  0  0  0  0  0  0  0  0  0
   -3.2590  -10.7550    1.8740 O   0  0  0  0  0  0  0  0  0  0  0  0
   -3.4580   -8.4250    2.5330 C   0  0  0  0  0  3  0  0  0  0  0  0
   -4.7980   -8.4870    2.7030 C   0  0  0  0  0  3  0  0  0  0  0  0
   -5.5720   -7.3440    3.1140 C   0  0  0  0  0  0  0  0  0  0  0  0
   -5.5020   -6.8590    4.4010 C   0  0  0  0  0  3  0  0  0  0  0  0
   -6.1760   -5.7610    4.7970 C   0  0  0  0  0  3  0  0  0  0  0  0
   -6.9630   -5.1130    3.8730 C   0  0  0  0  0  0  0  0  0  0  0  0
   -7.0840   -5.5830    2.6020 C   0  0  0  0  0  3  0  0  0  0  0  0
   -6.3760   -6.7030    2.2200 C   0  0  0  0  0  3  0  0  0  0  0  0
   -7.7010   -4.0290    4.1970 O   0  0  0  0  0  0  0  0  0  0  0  0
   -9.0640   -4.0770    3.8150 C   0  0  0  0  0  1  0  0  0  0  0  0
   -1.5060   -9.6090    1.6000 O   0  0  0  0  0  0  0  0  0  0  0  0
   -1.2550   -9.5780    0.1590 C   0  0  2  0  0  3  0  0  0  0  0  0
    0.0340  -10.2030   -0.1000 C   0  0  0  0  0  2  0  0  0  0  0  0
    1.1930   -9.2620    0.0370 C   0  0  0  0  0  1  0  0  0  0  0  0
   -1.2580   -8.1510   -0.3580 C   0  0  0  0  0  2  0  0  0  0  0  0
   -2.0260   -8.1410   -1.6980 C   0  0  0  0  0  2  0  0  0  0  0  0
   -4.3980   -8.0070   -1.0290 C   0  0  0  0  0  1  0  0  0  0  0  0
   -3.3060   -8.9110   -1.6410 C   0  0  0  0  0  2  0  0  0  0  0  0
  1  3  1  0  0  0  0
  2  1  2  0  0  0  0
  3  4  2  0  0  0  0
  4  5  1  0  0  0  0
  5  6  1  0  0  0  0
  6  7  2  0  0  0  0
  8 11  1  0  0  0  0
  8  7  1  0  0  0  0
  9  8  2  0  0  0  0
 10  9  1  0  0  0  0
 10  5  2  0  0  0  0
 12 11  1  0  0  0  0
 13  1  1  0  0  0  0
 14 17  1  1  0  0  0
 14 13  1  0  0  0  0
 15 16  1  0  0  0  0
 15 14  1  0  0  0  0
 18 20  1  0  0  0  0
 18 17  1  0  0  0  0
 20 19  1  0  0  0  0
M  END
>  <MODEL>
2

>  <REMARK>
 VINA RESULT:      -4.4      1.994      7.172
  Name = bg33_3_ligand
  12 active torsions:
  status: ('A' for Active; 'I' for Inactive)
    1  A    between atoms: C_1  and  C_2
    2  A    between atoms: C_2  and  C_3
    3  A    between atoms: C_3  and  C_4
    4  A    between atoms: C_4  and  C_5
    5  A    between atoms: C_5  and  C_6
    6  A    between atoms: C_5  and  O_8
    7  A    between atoms: C_6  and  C_7
    8  A    between atoms: O_8  and  C_9
    9  A    between atoms: C_9  and  C_11
   10  A    between atoms: C_12  and  C_13
   11  A    between atoms: C_16  and  O_17
   12  A    between atoms: O_17  and  C_18
                            x       y       z     vdW  Elec       q    Type
                         _______ _______ _______ _____ _____    ______ ____

>  <TORSDO>
F 9

$$$$
bg33_3_ligand
 OpenBabel10092621163D

 20 20  0  0  1  0  0  0  0  0999 V2000
   -3.1590   -9.9430    1.9580 C   0  0  0  0  0  0  0  0  0  0  0  0
   -3.6160  -11.0060    2.3090 O   0  0  0  0  0  0  0  0  0  0  0  0
   -3.9050   -8.5950    2.2280 C   0  0  0  0  0  3  0  0  0  0  0  0
   -4.7490   -8.5180    3.2820 C   0  0  0  0  0  3  0  0  0  0  0  0
   -5.5470   -7.3470    3.5410 C   0  0  0  0  0  0  0  0  0  0  0  0
   -5.6110   -6.7910    4.8000 C   0  0  0  0  0  3  0  0  0  0  0  0
   -6.3080   -5.6670    5.0570 C   0  0  0  0  0  3  0  0  0  0  0  0
   -6.9790   -5.0650    4.0180 C   0  0  0  0  0  0  0  0  0  0  0  0
   -6.9670   -5.6050    2.7700 C   0  0  0  0  0  3  0  0  0  0  0  0
   -6.2370   -6.7510    2.5310 C   0  0  0  0  0  3  0  0  0  0  0  0
   -7.7320   -3.9580    4.1980 O   0  0  0  0  0  0  0  0  0  0  0  0
   -9.0410   -4.0100    3.6560 C   0  0  0  0  0  1  0  0  0  0  0  0
   -2.0590   -9.9640    1.3350 O   0  0  0  0  0  0  0  0  0  0  0  0
   -1.7770   -8.8510    0.4280 C   0  0  2  0  0  3  0  0  0  0  0  0
   -2.1050   -9.2650   -0.9300 C   0  0  0  0  0  2  0  0  0  0  0  0
   -2.1200   -8.1330   -1.9130 C   0  0  0  0  0  1  0  0  0  0  0  0
   -0.3170   -8.4440    0.5110 C   0  0  0  0  0  2  0  0  0  0  0  0
    0.5320   -9.7320    0.4230 C   0  0  0  0  0  2  0  0  0  0  0  0
    1.6350   -8.3310   -1.2830 C   0  0  0  0  0  1  0  0  0  0  0  0
    1.8040   -9.5400   -0.3370 C   0  0  0  0  0  2  0  0  0  0  0  0
  1  3  1  0  0  0  0
  1  2  2  0  0  0  0
  3  4  2  0  0  0  0
  4  5  1  0  0  0  0
  5  6  1  0  0  0  0
  6  7  2  0  0  0  0
  8 11  1  0  0  0  0
  8  7  1  0  0  0  0
  9  8  2  0  0  0  0
 10  9  1  0  0  0  0
 10  5  2  0  0  0  0
 12 11  1  0  0  0  0
 13  1  1  0  0  0  0
 14 15  1  6  0  0  0
 14 17  1  0  0  0  0
 14 13  1  0  0  0  0
 16 15  1  0  0  0  0
 18 17  1  0  0  0  0
 19 20  1  0  0  0  0
 20 18  1  0  0  0  0
M  END
>  <MODEL>
3

>  <REMARK>
 VINA RESULT:      -4.3      1.935      7.575
  Name = bg33_3_ligand
  12 active torsions:
  status: ('A' for Active; 'I' for Inactive)
    1  A    between atoms: C_1  and  C_2
    2  A    between atoms: C_2  and  C_3
    3  A    between atoms: C_3  and  C_4
    4  A    between atoms: C_4  and  C_5
    5  A    between atoms: C_5  and  C_6
    6  A    between atoms: C_5  and  O_8
    7  A    between atoms: C_6  and  C_7
    8  A    between atoms: O_8  and  C_9
    9  A    between atoms: C_9  and  C_11
   10  A    between atoms: C_12  and  C_13
   11  A    between atoms: C_16  and  O_17
   12  A    between atoms: O_17  and  C_18
                            x       y       z     vdW  Elec       q    Type
                         _______ _______ _______ _____ _____    ______ ____

>  <TORSDO>
F 9

$$$$
bg33_3_ligand
 OpenBabel10092621163D

 20 20  0  0  1  0  0  0  0  0999 V2000
   -5.1390   -8.5010    2.8310 C   0  0  0  0  0  0  0  0  0  0  0  0
   -6.1970   -9.0860    2.8070 O   0  0  0  0  0  0  0  0  0  0  0  0
   -4.0620   -8.7010    1.7140 C   0  0  0  0  0  3  0  0  0  0  0  0
   -2.7610   -8.4900    2.0180 C   0  0  0  0  0  3  0  0  0  0  0  0
   -1.7210   -8.5580    1.0240 C   0  0  0  0  0  0  0  0  0  0  0  0
   -0.5100   -9.1570    1.2970 C   0  0  0  0  0  3  0  0  0  0  0  0
    0.4590   -9.2790    0.3700 C   0  0  0  0  0  3  0  0  0  0  0  0
    0.2220   -8.7790   -0.8900 C   0  0  0  0  0  0  0  0  0  0  0  0
   -0.9480   -8.1510   -1.1850 C   0  0  0  0  0  3  0  0  0  0  0  0
   -1.9280   -8.0480   -0.2210 C   0  0  0  0  0  3  0  0  0  0  0  0
    1.1550   -8.8260   -1.8660 O   0  0  0  0  0  0  0  0  0  0  0  0
    0.6590   -8.9840   -3.1840 C   0  0  0  0  0  1  0  0  0  0  0  0
   -4.9220   -7.7360    3.8140 O   0  0  0  0  0  0  0  0  0  0  0  0
   -6.0410   -6.9260    4.2970 C   0  0  2  0  0  3  0  0  0  0  0  0
   -5.9450   -5.6010    3.7000 C   0  0  0  0  0  2  0  0  0  0  0  0
   -6.8670   -4.5960    4.3230 C   0  0  0  0  0  1  0  0  0  0  0  0
   -6.0150   -6.8210    5.8110 C   0  0  0  0  0  2  0  0  0  0  0  0
   -7.0170   -7.8560    6.3670 C   0  0  0  0  0  2  0  0  0  0  0  0
   -6.3080  -10.2100    6.1580 C   0  0  0  0  0  1  0  0  0  0  0  0
   -6.3510   -8.9810    7.0920 C   0  0  0  0  0  2  0  0  0  0  0  0
  1 13  1  0  0  0  0
  2  1  2  0  0  0  0
  3  4  2  0  0  0  0
  3  1  1  0  0  0  0
  5  6  1  0  0  0  0
  5  4  1  0  0  0  0
  7  6  2  0  0  0  0
  8  7  1  0  0  0  0
  9  8  2  0  0  0  0
  9 10  1  0  0  0  0
 10  5  2  0  0  0  0
 11  8  1  0  0  0  0
 12 11  1  0  0  0  0
 13 14  1  0  0  0  0
 14 15  1  6  0  0  0
 14 17  1  0  0  0  0
 15 16  1  0  0  0  0
 17 18  1  0  0  0  0
 18 20  1  0  0  0  0
 19 20  1  0  0  0  0
M  END
>  <MODEL>
4

>  <REMARK>
 VINA RESULT:      -4.3      1.704      2.972
  Name = bg33_3_ligand
  12 active torsions:
  status: ('A' for Active; 'I' for Inactive)
    1  A    between atoms: C_1  and  C_2
    2  A    between atoms: C_2  and  C_3
    3  A    between atoms: C_3  and  C_4
    4  A    between atoms: C_4  and  C_5
    5  A    between atoms: C_5  and  C_6
    6  A    between atoms: C_5  and  O_8
    7  A    between atoms: C_6  and  C_7
    8  A    between atoms: O_8  and  C_9
    9  A    between atoms: C_9  and  C_11
   10  A    between atoms: C_12  and  C_13
   11  A    between atoms: C_16  and  O_17
   12  A    between atoms: O_17  and  C_18
                            x       y       z     vdW  Elec       q    Type
                         _______ _______ _______ _____ _____    ______ ____

>  <TORSDO>
F 9

$$$$
bg33_3_ligand
 OpenBabel10092621163D

 20 20  0  0  1  0  0  0  0  0999 V2000
   -7.4610   -5.2190   -1.4910 C   0  0  0  0  0  0  0  0  0  0  0  0
   -8.4150   -4.4940   -1.6540 O   0  0  0  0  0  0  0  0  0  0  0  0
   -7.0960   -5.7960   -0.0830 C   0  0  0  0  0  3  0  0  0  0  0  0
   -7.2480   -5.0060    1.0040 C   0  0  0  0  0  3  0  0  0  0  0  0
   -6.8430   -5.4280    2.3200 C   0  0  0  0  0  0  0  0  0  0  0  0
   -6.1300   -6.5920    2.5090 C   0  0  0  0  0  3  0  0  0  0  0  0
   -5.6960   -6.9820    3.7240 C   0  0  0  0  0  3  0  0  0  0  0  0
   -5.9860   -6.1840    4.8060 C   0  0  0  0  0  0  0  0  0  0  0  0
   -6.7180   -5.0460    4.6620 C   0  0  0  0  0  3  0  0  0  0  0  0
   -7.1410   -4.6640    3.4070 C   0  0  0  0  0  3  0  0  0  0  0  0
   -5.6220   -6.5220    6.0620 O   0  0  0  0  0  0  0  0  0  0  0  0
   -6.2490   -7.6760    6.5950 C   0  0  0  0  0  1  0  0  0  0  0  0
   -6.7470   -5.4740   -2.5030 O   0  0  0  0  0  0  0  0  0  0  0  0
   -5.3630   -5.8850   -2.2670 C   0  0  2  0  0  3  0  0  0  0  0  0
   -4.5040   -5.1850   -3.2120 C   0  0  0  0  0  2  0  0  0  0  0  0
   -4.8870   -5.4060   -4.6450 C   0  0  0  0  0  1  0  0  0  0  0  0
   -5.2110   -7.3860   -2.4340 C   0  0  0  0  0  2  0  0  0  0  0  0
   -4.1440   -7.8610   -1.4230 C   0  0  0  0  0  2  0  0  0  0  0  0
   -3.5820   -9.0330    0.6750 C   0  0  0  0  0  1  0  0  0  0  0  0
   -4.7310   -8.5820   -0.2520 C   0  0  0  0  0  2  0  0  0  0  0  0
  1  3  1  0  0  0  0
  2  1  2  0  0  0  0
  3  4  2  0  0  0  0
  4  5  1  0  0  0  0
  5  6  2  0  0  0  0
  5 10  1  0  0  0  0
  6  7  1  0  0  0  0
  7  8  2  0  0  0  0
  8 11  1  0  0  0  0
  9  8  1  0  0  0  0
 10  9  2  0  0  0  0
 11 12  1  0  0  0  0
 13 14  1  0  0  0  0
 13  1  1  0  0  0  0
 14 15  1  6  0  0  0
 16 15  1  0  0  0  0
 17 14  1  0  0  0  0
 17 18  1  0  0  0  0
 18 20  1  0  0  0  0
 20 19  1  0  0  0  0
M  END
>  <MODEL>
5

>  <REMARK>
 VINA RESULT:      -4.3      3.302      7.281
  Name = bg33_3_ligand
  12 active torsions:
  status: ('A' for Active; 'I' for Inactive)
    1  A    between atoms: C_1  and  C_2
    2  A    between atoms: C_2  and  C_3
    3  A    between atoms: C_3  and  C_4
    4  A    between atoms: C_4  and  C_5
    5  A    between atoms: C_5  and  C_6
    6  A    between atoms: C_5  and  O_8
    7  A    between atoms: C_6  and  C_7
    8  A    between atoms: O_8  and  C_9
    9  A    between atoms: C_9  and  C_11
   10  A    between atoms: C_12  and  C_13
   11  A    between atoms: C_16  and  O_17
   12  A    between atoms: O_17  and  C_18
                            x       y       z     vdW  Elec       q    Type
                         _______ _______ _______ _____ _____    ______ ____

>  <TORSDO>
F 9

$$$$
bg33_3_ligand
 OpenBabel10092621163D

 20 20  0  0  1  0  0  0  0  0999 V2000
   -6.0260   -8.3960    2.8460 C   0  0  0  0  0  0  0  0  0  0  0  0
   -6.7300   -9.2700    2.3930 O   0  0  0  0  0  0  0  0  0  0  0  0
   -4.5060   -8.2960    2.4900 C   0  0  0  0  0  3  0  0  0  0  0  0
   -4.1190   -8.5290    1.2150 C   0  0  0  0  0  3  0  0  0  0  0  0
   -2.7310   -8.5520    0.8280 C   0  0  0  0  0  0  0  0  0  0  0  0
   -1.7600   -9.0340    1.6780 C   0  0  0  0  0  3  0  0  0  0  0  0
   -0.4630   -9.1130    1.3220 C   0  0  0  0  0  3  0  0  0  0  0  0
   -0.1080   -8.6900    0.0610 C   0  0  0  0  0  0  0  0  0  0  0  0
   -1.0340   -8.1760   -0.7920 C   0  0  0  0  0  3  0  0  0  0  0  0
   -2.3570   -8.1150   -0.4060 C   0  0  0  0  0  3  0  0  0  0  0  0
    1.1750   -8.6990   -0.3610 O   0  0  0  0  0  0  0  0  0  0  0  0
    1.3670   -8.4830   -1.7480 C   0  0  0  0  0  1  0  0  0  0  0  0
   -6.5620   -7.5770    3.6460 O   0  0  0  0  0  0  0  0  0  0  0  0
   -5.7310   -6.4830    4.1490 C   0  0  2  0  0  3  0  0  0  0  0  0
   -5.9400   -6.3660    5.5860 C   0  0  0  0  0  2  0  0  0  0  0  0
   -6.1910   -7.6800    6.2620 C   0  0  0  0  0  1  0  0  0  0  0  0
   -6.0840   -5.1780    3.4600 C   0  0  0  0  0  2  0  0  0  0  0  0
   -7.3510   -4.6180    4.1440 C   0  0  0  0  0  2  0  0  0  0  0  0
   -8.0490   -4.8680    1.7910 C   0  0  0  0  0  1  0  0  0  0  0  0
   -8.5250   -4.5380    3.2220 C   0  0  0  0  0  2  0  0  0  0  0  0
  1 13  1  0  0  0  0
  2  1  2  0  0  0  0
  3  1  1  0  0  0  0
  4  3  2  0  0  0  0
  5  4  1  0  0  0  0
  5  6  1  0  0  0  0
  7  6  2  0  0  0  0
  8  7  1  0  0  0  0
  9 10  1  0  0  0  0
  9  8  2  0  0  0  0
 10  5  2  0  0  0  0
 11  8  1  0  0  0  0
 12 11  1  0  0  0  0
 13 14  1  0  0  0  0
 14 17  1  6  0  0  0
 14 15  1  0  0  0  0
 15 16  1  0  0  0  0
 17 18  1  0  0  0  0
 19 20  1  0  0  0  0
 20 18  1  0  0  0  0
M  END
>  <MODEL>
6

>  <REMARK>
 VINA RESULT:      -4.3      1.350      2.171
  Name = bg33_3_ligand
  12 active torsions:
  status: ('A' for Active; 'I' for Inactive)
    1  A    between atoms: C_1  and  C_2
    2  A    between atoms: C_2  and  C_3
    3  A    between atoms: C_3  and  C_4
    4  A    between atoms: C_4  and  C_5
    5  A    between atoms: C_5  and  C_6
    6  A    between atoms: C_5  and  O_8
    7  A    between atoms: C_6  and  C_7
    8  A    between atoms: O_8  and  C_9
    9  A    between atoms: C_9  and  C_11
   10  A    between atoms: C_12  and  C_13
   11  A    between atoms: C_16  and  O_17
   12  A    between atoms: O_17  and  C_18
                            x       y       z     vdW  Elec       q    Type
                         _______ _______ _______ _____ _____    ______ ____

>  <TORSDO>
F 9

$$$$
bg33_3_ligand
 OpenBabel10092621163D

 20 20  0  0  1  0  0  0  0  0999 V2000
   -1.1750   -9.1280    1.2740 C   0  0  0  0  0  0  0  0  0  0  0  0
   -0.7000  -10.2400    1.3070 O   0  0  0  0  0  0  0  0  0  0  0  0
   -2.3090   -8.6870    2.2580 C   0  0  0  0  0  3  0  0  0  0  0  0
   -3.5110   -9.3020    2.1850 C   0  0  0  0  0  3  0  0  0  0  0  0
   -4.6330   -8.8890    2.9870 C   0  0  0  0  0  0  0  0  0  0  0  0
   -5.3920   -9.8070    3.6800 C   0  0  0  0  0  3  0  0  0  0  0  0
   -6.4150   -9.4410    4.4780 C   0  0  0  0  0  3  0  0  0  0  0  0
   -6.7050   -8.1010    4.5930 C   0  0  0  0  0  0  0  0  0  0  0  0
   -5.9990   -7.1700    3.8960 C   0  0  0  0  0  3  0  0  0  0  0  0
   -4.9500   -7.5690    3.0940 C   0  0  0  0  0  3  0  0  0  0  0  0
   -7.7370   -7.6540    5.3400 O   0  0  0  0  0  0  0  0  0  0  0  0
   -7.9970   -6.2630    5.2600 C   0  0  0  0  0  1  0  0  0  0  0  0
   -0.7380   -8.3380    0.3890 O   0  0  0  0  0  0  0  0  0  0  0  0
   -1.1360   -8.5900   -0.9960 C   0  0  2  0  0  3  0  0  0  0  0  0
    0.0210   -8.3770   -1.8560 C   0  0  0  0  0  2  0  0  0  0  0  0
    1.2860   -8.1030   -1.0990 C   0  0  0  0  0  1  0  0  0  0  0  0
   -2.2700   -7.6700   -1.4080 C   0  0  0  0  0  2  0  0  0  0  0  0
   -3.5510   -8.5270   -1.5120 C   0  0  0  0  0  2  0  0  0  0  0  0
   -5.8320   -8.9190   -0.6550 C   0  0  0  0  0  1  0  0  0  0  0  0
   -4.7530   -7.8500   -0.9360 C   0  0  0  0  0  2  0  0  0  0  0  0
  1  2  2  0  0  0  0
  1  3  1  0  0  0  0
  4  3  2  0  0  0  0
  4  5  1  0  0  0  0
  5 10  2  0  0  0  0
  5  6  1  0  0  0  0
  6  7  2  0  0  0  0
  7  8  1  0  0  0  0
  8 11  1  0  0  0  0
  9  8  2  0  0  0  0
 10  9  1  0  0  0  0
 12 11  1  0  0  0  0
 13  1  1  0  0  0  0
 14 15  1  6  0  0  0
 14 13  1  0  0  0  0
 15 16  1  0  0  0  0
 17 14  1  0  0  0  0
 18 17  1  0  0  0  0
 18 20  1  0  0  0  0
 20 19  1  0  0  0  0
M  END
>  <MODEL>
7

>  <REMARK>
 VINA RESULT:      -4.2      2.060      6.950
  Name = bg33_3_ligand
  12 active torsions:
  status: ('A' for Active; 'I' for Inactive)
    1  A    between atoms: C_1  and  C_2
    2  A    between atoms: C_2  and  C_3
    3  A    between atoms: C_3  and  C_4
    4  A    between atoms: C_4  and  C_5
    5  A    between atoms: C_5  and  C_6
    6  A    between atoms: C_5  and  O_8
    7  A    between atoms: C_6  and  C_7
    8  A    between atoms: O_8  and  C_9
    9  A    between atoms: C_9  and  C_11
   10  A    between atoms: C_12  and  C_13
   11  A    between atoms: C_16  and  O_17
   12  A    between atoms: O_17  and  C_18
                            x       y       z     vdW  Elec       q    Type
                         _______ _______ _______ _____ _____    ______ ____

>  <TORSDO>
F 9

$$$$
bg33_3_ligand
 OpenBabel10092621163D

 20 20  0  0  1  0  0  0  0  0999 V2000
   -6.4930   -7.2760    0.8220 C   0  0  0  0  0  0  0  0  0  0  0  0
   -6.0500   -7.9060   -0.1110 O   0  0  0  0  0  0  0  0  0  0  0  0
   -7.0510   -5.8250    0.6460 C   0  0  0  0  0  3  0  0  0  0  0  0
   -8.3350   -5.5760    0.9860 C   0  0  0  0  0  3  0  0  0  0  0  0
   -8.9520   -4.2930    0.7640 C   0  0  0  0  0  0  0  0  0  0  0  0
   -9.8010   -3.7380    1.6960 C   0  0  0  0  0  3  0  0  0  0  0  0
  -10.3500   -2.5180    1.5350 C   0  0  0  0  0  3  0  0  0  0  0  0
  -10.0470   -1.8130    0.3920 C   0  0  0  0  0  0  0  0  0  0  0  0
   -9.2400   -2.3450   -0.5650 C   0  0  0  0  0  3  0  0  0  0  0  0
   -8.6830   -3.5920   -0.3710 C   0  0  0  0  0  3  0  0  0  0  0  0
  -10.5850   -0.6010    0.1350 O   0  0  0  0  0  0  0  0  0  0  0  0
   -9.8880    0.1930   -0.8090 C   0  0  0  0  0  1  0  0  0  0  0  0
   -6.4620   -7.8280    1.9590 O   0  0  0  0  0  0  0  0  0  0  0  0
   -5.3980   -7.4220    2.8770 C   0  0  2  0  0  3  0  0  0  0  0  0
   -4.5740   -8.5860    3.1750 C   0  0  0  0  0  2  0  0  0  0  0  0
   -3.2560   -8.5840    2.4600 C   0  0  0  0  0  1  0  0  0  0  0  0
   -5.9790   -6.8510    4.1570 C   0  0  0  0  0  2  0  0  0  0  0  0
   -5.8290   -5.3150    4.0930 C   0  0  0  0  0  2  0  0  0  0  0  0
   -8.1910   -5.5970    4.7510 C   0  0  0  0  0  1  0  0  0  0  0  0
   -7.1310   -4.5960    4.2440 C   0  0  0  0  0  2  0  0  0  0  0  0
  1 13  1  0  0  0  0
  2  1  2  0  0  0  0
  3  1  1  0  0  0  0
  3  4  2  0  0  0  0
  5  4  1  0  0  0  0
  5  6  1  0  0  0  0
  7  6  2  0  0  0  0
  8  7  1  0  0  0  0
  9 10  1  0  0  0  0
  9  8  2  0  0  0  0
 10  5  2  0  0  0  0
 11  8  1  0  0  0  0
 12 11  1  0  0  0  0
 13 14  1  0  0  0  0
 14 15  1  1  0  0  0
 14 17  1  0  0  0  0
 16 15  1  0  0  0  0
 18 17  1  0  0  0  0
 18 20  1  0  0  0  0
 20 19  1  0  0  0  0
M  END
>  <MODEL>
8

>  <REMARK>
 VINA RESULT:      -4.2      3.292      7.871
  Name = bg33_3_ligand
  12 active torsions:
  status: ('A' for Active; 'I' for Inactive)
    1  A    between atoms: C_1  and  C_2
    2  A    between atoms: C_2  and  C_3
    3  A    between atoms: C_3  and  C_4
    4  A    between atoms: C_4  and  C_5
    5  A    between atoms: C_5  and  C_6
    6  A    between atoms: C_5  and  O_8
    7  A    between atoms: C_6  and  C_7
    8  A    between atoms: O_8  and  C_9
    9  A    between atoms: C_9  and  C_11
   10  A    between atoms: C_12  and  C_13
   11  A    between atoms: C_16  and  O_17
   12  A    between atoms: O_17  and  C_18
                            x       y       z     vdW  Elec       q    Type
                         _______ _______ _______ _____ _____    ______ ____

>  <TORSDO>
F 9

$$$$
bg33_3_ligand
 OpenBabel10092621163D

 20 20  0  0  1  0  0  0  0  0999 V2000
   -7.3320   -8.2350    0.7430 C   0  0  0  0  0  0  0  0  0  0  0  0
   -8.0710   -9.1900    0.6890 O   0  0  0  0  0  0  0  0  0  0  0  0
   -5.8360   -8.3230    0.2920 C   0  0  0  0  0  3  0  0  0  0  0  0
   -4.8930   -8.6100    1.2180 C   0  0  0  0  0  3  0  0  0  0  0  0
   -3.4870   -8.6140    0.9040 C   0  0  0  0  0  0  0  0  0  0  0  0
   -3.0330   -8.2370   -0.3410 C   0  0  0  0  0  3  0  0  0  0  0  0
   -1.7210   -8.1830   -0.6440 C   0  0  0  0  0  3  0  0  0  0  0  0
   -0.8130   -8.5230    0.3320 C   0  0  0  0  0  0  0  0  0  0  0  0
   -1.2260   -8.9320    1.5620 C   0  0  0  0  0  3  0  0  0  0  0  0
   -2.5740   -8.9700    1.8490 C   0  0  0  0  0  3  0  0  0  0  0  0
    0.5180   -8.5330    0.1000 O   0  0  0  0  0  0  0  0  0  0  0  0
    0.9140   -8.1990   -1.2190 C   0  0  0  0  0  1  0  0  0  0  0  0
   -7.8090   -7.1600    1.2080 O   0  0  0  0  0  0  0  0  0  0  0  0
   -7.0800   -5.9230    0.9290 C   0  0  2  0  0  3  0  0  0  0  0  0
   -7.1760   -5.0560    2.0960 C   0  0  0  0  0  2  0  0  0  0  0  0
   -6.2530   -5.4500    3.2110 C   0  0  0  0  0  1  0  0  0  0  0  0
   -7.6510   -5.2230   -0.2900 C   0  0  0  0  0  2  0  0  0  0  0  0
   -6.4620   -4.7140   -1.1360 C   0  0  0  0  0  2  0  0  0  0  0  0
   -4.5540   -5.4160   -2.5340 C   0  0  0  0  0  1  0  0  0  0  0  0
   -6.0320   -5.6910   -2.1830 C   0  0  0  0  0  2  0  0  0  0  0  0
  1 13  1  0  0  0  0
  2  1  2  0  0  0  0
  3  1  1  0  0  0  0
  3  4  2  0  0  0  0
  5  4  1  0  0  0  0
  5 10  1  0  0  0  0
  6  5  2  0  0  0  0
  7  6  1  0  0  0  0
  7  8  2  0  0  0  0
  8  9  1  0  0  0  0
  9 10  2  0  0  0  0
 11  8  1  0  0  0  0
 12 11  1  0  0  0  0
 14 17  1  6  0  0  0
 14 13  1  0  0  0  0
 14 15  1  0  0  0  0
 15 16  1  0  0  0  0
 18 17  1  0  0  0  0
 19 20  1  0  0  0  0
 20 18  1  0  0  0  0
M  END
>  <MODEL>
9

>  <REMARK>
 VINA RESULT:      -4.1      2.073      2.745
  Name = bg33_3_ligand
  12 active torsions:
  status: ('A' for Active; 'I' for Inactive)
    1  A    between atoms: C_1  and  C_2
    2  A    between atoms: C_2  and  C_3
    3  A    between atoms: C_3  and  C_4
    4  A    between atoms: C_4  and  C_5
    5  A    between atoms: C_5  and  C_6
    6  A    between atoms: C_5  and  O_8
    7  A    between atoms: C_6  and  C_7
    8  A    between atoms: O_8  and  C_9
    9  A    between atoms: C_9  and  C_11
   10  A    between atoms: C_12  and  C_13
   11  A    between atoms: C_16  and  O_17
   12  A    between atoms: O_17  and  C_18
                            x       y       z     vdW  Elec       q    Type
                         _______ _______ _______ _____ _____    ______ ____

>  <TORSDO>
F 9

$$$$
