s2_esm2_control_ligand
     RDKit          3D

 20 20  0  0  0  0  0  0  0  0999 V2000
  -12.2960   12.0250   -1.3080 C   0  0  0  0  0  0  0  0  0  0  0  0
  -12.0170   11.4950   -2.6780 C   0  0  0  0  0  0  0  0  0  0  0  0
  -11.8220   10.0320   -2.7050 C   0  0  0  0  0  0  0  0  0  0  0  0
  -11.4100    9.5190   -4.0380 C   0  0  0  0  0  0  0  0  0  0  0  0
  -11.0560    8.0410   -4.0150 C   0  0  2  0  0  0  0  0  0  0  0  0
  -12.0710    7.1640   -3.3140 C   0  0  0  0  0  0  0  0  0  0  0  0
  -11.6060    6.5560   -2.0410 C   0  0  0  0  0  0  0  0  0  0  0  0
   -9.8130    7.9100   -3.3270 O   0  0  0  0  0  0  0  0  0  0  0  0
   -8.7190    7.7720   -4.1030 C   0  0  0  0  0  0  0  0  0  0  0  0
   -8.8240    7.3760   -5.2180 O   0  0  0  0  0  0  0  0  0  0  0  0
   -7.4360    8.1850   -3.4260 C   0  0  0  0  0  0  0  0  0  0  0  0
   -6.5010    7.0680   -3.1340 C   0  0  0  0  0  0  0  0  0  0  0  0
   -5.4900    6.7630   -4.2120 C   0  0  0  0  0  0  0  0  0  0  0  0
   -5.7850    6.7700   -5.5370 C   0  0  0  0  0  0  0  0  0  0  0  0
   -4.8500    6.5240   -6.5070 C   0  0  0  0  0  0  0  0  0  0  0  0
   -3.5650    6.2420   -6.1780 C   0  0  0  0  0  0  0  0  0  0  0  0
   -2.6650    6.0150   -7.1800 O   0  0  0  0  0  0  0  0  0  0  0  0
   -1.2810    6.0300   -6.8170 C   0  0  0  0  0  0  0  0  0  0  0  0
   -3.2360    6.2060   -4.8340 C   0  0  0  0  0  0  0  0  0  0  0  0
   -4.1970    6.4440   -3.8730 C   0  0  0  0  0  0  0  0  0  0  0  0
  2  1  1  0
  3  2  1  0
  4  3  1  0
  5  4  1  1
  6  5  1  0
  7  6  1  0
  8  5  1  0
  9  8  1  0
 10  9  2  0
 11  9  1  0
 12 11  2  3
 13 12  1  0
 14 13  1  0
 15 14  2  0
 16 15  1  0
 17 16  1  0
 18 17  1  0
 19 16  2  0
 20 19  1  0
 20 13  2  0
M  END
