ox2_shuffle_esm0_ligand
 OpenBabel10092621223D

 18 19  0  0  0  0  0  0  0  0999 V2000
   -6.0390    0.7490   -7.1060 C   0  0  0  0  0  0  0  0  0  0  0  0
   -5.9180   -0.0610   -8.2280 C   0  0  0  0  0  3  0  0  0  0  0  0
   -6.5510   -1.2780   -8.2620 C   0  0  0  0  0  3  0  0  0  0  0  0
   -7.3140   -1.7080   -7.2010 C   0  0  0  0  0  0  0  0  0  0  0  0
   -7.4170   -0.9070   -6.0720 C   0  0  0  0  0  0  0  0  0  0  0  0
   -6.7870    0.3210   -6.0370 C   0  0  0  0  0  3  0  0  0  0  0  0
   -4.1990    2.2230   -7.6630 C   0  0  0  0  0  1  0  0  0  0  0  0
   -5.4540    1.9650   -7.0270 O   0  0  0  0  0  0  0  0  0  0  0  0
   -8.0340   -3.0100   -7.2000 C   0  0  0  0  0  0  0  0  0  0  0  0
   -9.2330   -2.9740   -7.3190 O   0  0  0  0  0  0  0  0  0  0  0  0
   -7.3940   -4.3390   -7.1340 C   0  0  0  0  0  0  0  0  0  0  0  0
   -7.7010   -5.1790   -6.0640 C   0  0  0  0  0  3  0  0  0  0  0  0
   -7.1450   -6.4340   -5.9740 C   0  0  0  0  0  3  0  0  0  0  0  0
   -6.2670   -6.8820   -6.9420 C   0  0  0  0  0  3  0  0  0  0  0  0
   -5.9670   -6.0610   -8.0100 C   0  0  0  0  0  3  0  0  0  0  0  0
   -6.5390   -4.8040   -8.1010 C   0  0  0  0  0  3  0  0  0  0  0  0
   -8.1520   -1.3550   -5.0180 O   0  0  0  0  0  0  0  0  0  0  0  0
   -7.9830   -0.9980   -4.1100 H   0  0  0  0  0  0  0  0  0  0  0  0
  1  8  1  0  0  0  0
  1  6  1  0  0  0  0
  2  1  2  0  0  0  0
  3  2  1  0  0  0  0
  3  4  2  0  0  0  0
  4  9  1  0  0  0  0
  4  5  1  0  0  0  0
  5  6  2  0  0  0  0
  5 17  1  0  0  0  0
  7  8  1  0  0  0  0
  9 11  1  0  0  0  0
 10  9  2  0  0  0  0
 11 12  1  0  0  0  0
 12 13  2  0  0  0  0
 14 13  1  0  0  0  0
 15 14  2  0  0  0  0
 16 15  1  0  0  0  0
 16 11  2  0  0  0  0
 17 18  1  0  0  0  0
M  END
>  <MODEL>
1

>  <REMARK>
 VINA RESULT:      -5.7      0.000      0.000
  Name = ox2_shuffle_esm0_ligand
  5 active torsions:
  status: ('A' for Active; 'I' for Inactive)
    1  A    between atoms: C_1  and  O_2
    2  A    between atoms: O_2  and  C_3
    3  A    between atoms: C_6  and  C_7
    4  A    between atoms: C_7  and  C_9
    5  A    between atoms: C_15  and  O_16
                            x       y       z     vdW  Elec       q    Type
                         _______ _______ _______ _____ _____    ______ ____

>  <TORSDO>
F 4

$$$$
ox2_shuffle_esm0_ligand
 OpenBabel10092621223D

 18 19  0  0  0  0  0  0  0  0999 V2000
   -7.0080   -4.7000   -7.7770 C   0  0  0  0  0  0  0  0  0  0  0  0
   -6.1050   -4.0500   -8.6100 C   0  0  0  0  0  3  0  0  0  0  0  0
   -6.0250   -2.6810   -8.5900 C   0  0  0  0  0  3  0  0  0  0  0  0
   -6.8230   -1.9370   -7.7510 C   0  0  0  0  0  0  0  0  0  0  0  0
   -7.7390   -2.5870   -6.9360 C   0  0  0  0  0  0  0  0  0  0  0  0
   -7.8180   -3.9650   -6.9480 C   0  0  0  0  0  3  0  0  0  0  0  0
   -6.1840   -6.8420   -6.9990 C   0  0  0  0  0  1  0  0  0  0  0  0
   -7.1140   -6.0470   -7.7410 O   0  0  0  0  0  0  0  0  0  0  0  0
   -6.7570   -0.4520   -7.6820 C   0  0  0  0  0  0  0  0  0  0  0  0
   -7.7960    0.1490   -7.7930 O   0  0  0  0  0  0  0  0  0  0  0  0
   -5.5370    0.3370   -7.4200 C   0  0  0  0  0  0  0  0  0  0  0  0
   -4.6760   -0.0750   -6.4040 C   0  0  0  0  0  3  0  0  0  0  0  0
   -3.5160    0.6170   -6.1420 C   0  0  0  0  0  3  0  0  0  0  0  0
   -3.1880    1.7380   -6.8790 C   0  0  0  0  0  3  0  0  0  0  0  0
   -4.0290    2.1460   -7.8940 C   0  0  0  0  0  3  0  0  0  0  0  0
   -5.1880    1.4390   -8.1610 C   0  0  0  0  0  3  0  0  0  0  0  0
   -8.5420   -1.8390   -6.1300 O   0  0  0  0  0  0  0  0  0  0  0  0
   -8.2270   -0.9620   -5.7960 H   0  0  0  0  0  0  0  0  0  0  0  0
  1  8  1  0  0  0  0
  1  6  1  0  0  0  0
  2  3  1  0  0  0  0
  2  1  2  0  0  0  0
  3  4  2  0  0  0  0
  4  9  1  0  0  0  0
  4  5  1  0  0  0  0
  5 17  1  0  0  0  0
  6  5  2  0  0  0  0
  8  7  1  0  0  0  0
  9 11  1  0  0  0  0
 10  9  2  0  0  0  0
 11 12  1  0  0  0  0
 12 13  2  0  0  0  0
 14 13  1  0  0  0  0
 15 14  2  0  0  0  0
 16 15  1  0  0  0  0
 16 11  2  0  0  0  0
 17 18  1  0  0  0  0
M  END
>  <MODEL>
2

>  <REMARK>
 VINA RESULT:      -5.7      1.607      5.788
  Name = ox2_shuffle_esm0_ligand
  5 active torsions:
  status: ('A' for Active; 'I' for Inactive)
    1  A    between atoms: C_1  and  O_2
    2  A    between atoms: O_2  and  C_3
    3  A    between atoms: C_6  and  C_7
    4  A    between atoms: C_7  and  C_9
    5  A    between atoms: C_15  and  O_16
                            x       y       z     vdW  Elec       q    Type
                         _______ _______ _______ _____ _____    ______ ____

>  <TORSDO>
F 4

$$$$
ox2_shuffle_esm0_ligand
 OpenBabel10092621223D

 18 19  0  0  0  0  0  0  0  0999 V2000
   -5.6120    0.4940   -6.8940 C   0  0  0  0  0  0  0  0  0  0  0  0
   -6.4140    0.2040   -5.7960 C   0  0  0  0  0  3  0  0  0  0  0  0
   -7.2280   -0.9000   -5.8210 C   0  0  0  0  0  3  0  0  0  0  0  0
   -7.2580   -1.7340   -6.9150 C   0  0  0  0  0  0  0  0  0  0  0  0
   -6.4710   -1.4310   -8.0180 C   0  0  0  0  0  0  0  0  0  0  0  0
   -5.6460   -0.3240   -7.9950 C   0  0  0  0  0  3  0  0  0  0  0  0
   -3.5550    1.5510   -6.1700 C   0  0  0  0  0  1  0  0  0  0  0  0
   -4.7770    1.5560   -6.9150 O   0  0  0  0  0  0  0  0  0  0  0  0
   -8.1090   -2.9520   -6.9790 C   0  0  0  0  0  0  0  0  0  0  0  0
   -9.2150   -2.8260   -7.4410 O   0  0  0  0  0  0  0  0  0  0  0  0
   -7.6840   -4.3110   -6.5850 C   0  0  0  0  0  0  0  0  0  0  0  0
   -8.1350   -4.8300   -5.3730 C   0  0  0  0  0  3  0  0  0  0  0  0
   -7.7820   -6.1000   -4.9780 C   0  0  0  0  0  3  0  0  0  0  0  0
   -6.9700   -6.8810   -5.7750 C   0  0  0  0  0  3  0  0  0  0  0  0
   -6.5280   -6.3790   -6.9830 C   0  0  0  0  0  3  0  0  0  0  0  0
   -6.8960   -5.1050   -7.3800 C   0  0  0  0  0  3  0  0  0  0  0  0
   -6.5290   -2.2480   -9.1050 O   0  0  0  0  0  0  0  0  0  0  0  0
   -7.3370   -2.7950   -9.2700 H   0  0  0  0  0  0  0  0  0  0  0  0
  1  2  1  0  0  0  0
  3  2  2  0  0  0  0
  4  3  1  0  0  0  0
  5  6  1  0  0  0  0
  5  4  2  0  0  0  0
  6  1  2  0  0  0  0
  8  1  1  0  0  0  0
  8  7  1  0  0  0  0
  9  4  1  0  0  0  0
  9 11  1  0  0  0  0
 10  9  2  0  0  0  0
 11 12  1  0  0  0  0
 12 13  2  0  0  0  0
 14 13  1  0  0  0  0
 15 14  2  0  0  0  0
 16 15  1  0  0  0  0
 16 11  2  0  0  0  0
 17  5  1  0  0  0  0
 18 17  1  0  0  0  0
M  END
>  <MODEL>
3

>  <REMARK>
 VINA RESULT:      -5.4      1.081      1.789
  Name = ox2_shuffle_esm0_ligand
  5 active torsions:
  status: ('A' for Active; 'I' for Inactive)
    1  A    between atoms: C_1  and  O_2
    2  A    between atoms: O_2  and  C_3
    3  A    between atoms: C_6  and  C_7
    4  A    between atoms: C_7  and  C_9
    5  A    between atoms: C_15  and  O_16
                            x       y       z     vdW  Elec       q    Type
                         _______ _______ _______ _____ _____    ______ ____

>  <TORSDO>
F 4

$$$$
ox2_shuffle_esm0_ligand
 OpenBabel10092621223D

 18 19  0  0  0  0  0  0  0  0999 V2000
   -5.7940    1.4850   -5.9120 C   0  0  0  0  0  0  0  0  0  0  0  0
   -4.7300    0.6400   -6.2020 C   0  0  0  0  0  3  0  0  0  0  0  0
   -4.9330   -0.4620   -6.9930 C   0  0  0  0  0  3  0  0  0  0  0  0
   -6.1770   -0.7420   -7.5120 C   0  0  0  0  0  0  0  0  0  0  0  0
   -7.2420    0.0920   -7.2040 C   0  0  0  0  0  0  0  0  0  0  0  0
   -7.0410    1.2060   -6.4130 C   0  0  0  0  0  3  0  0  0  0  0  0
   -4.5900    2.7020   -4.1970 C   0  0  0  0  0  1  0  0  0  0  0  0
   -5.6470    2.5960   -5.1550 O   0  0  0  0  0  0  0  0  0  0  0  0
   -6.4400   -1.9140   -8.3900 C   0  0  0  0  0  0  0  0  0  0  0  0
   -6.3650   -1.7360   -9.5800 O   0  0  0  0  0  0  0  0  0  0  0  0
   -6.7180   -3.2860   -7.9210 C   0  0  0  0  0  0  0  0  0  0  0  0
   -6.0000   -4.3440   -8.4770 C   0  0  0  0  0  3  0  0  0  0  0  0
   -6.2110   -5.6360   -8.0540 C   0  0  0  0  0  3  0  0  0  0  0  0
   -7.1430   -5.9070   -7.0720 C   0  0  0  0  0  3  0  0  0  0  0  0
   -7.8500   -4.8640   -6.5070 C   0  0  0  0  0  3  0  0  0  0  0  0
   -7.6250   -3.5660   -6.9300 C   0  0  0  0  0  3  0  0  0  0  0  0
   -8.4730   -0.2090   -7.7010 O   0  0  0  0  0  0  0  0  0  0  0  0
   -9.0910    0.5180   -7.9650 H   0  0  0  0  0  0  0  0  0  0  0  0
  1  8  1  0  0  0  0
  2  1  1  0  0  0  0
  3  2  2  0  0  0  0
  4  5  2  0  0  0  0
  4  3  1  0  0  0  0
  5  6  1  0  0  0  0
  6  1  2  0  0  0  0
  8  7  1  0  0  0  0
  9 11  1  0  0  0  0
  9  4  1  0  0  0  0
 10  9  2  0  0  0  0
 11 16  1  0  0  0  0
 12 13  1  0  0  0  0
 12 11  2  0  0  0  0
 13 14  2  0  0  0  0
 14 15  1  0  0  0  0
 16 15  2  0  0  0  0
 17  5  1  0  0  0  0
 18 17  1  0  0  0  0
M  END
>  <MODEL>
4

>  <REMARK>
 VINA RESULT:      -5.3      1.819      2.352
  Name = ox2_shuffle_esm0_ligand
  5 active torsions:
  status: ('A' for Active; 'I' for Inactive)
    1  A    between atoms: C_1  and  O_2
    2  A    between atoms: O_2  and  C_3
    3  A    between atoms: C_6  and  C_7
    4  A    between atoms: C_7  and  C_9
    5  A    between atoms: C_15  and  O_16
                            x       y       z     vdW  Elec       q    Type
                         _______ _______ _______ _____ _____    ______ ____

>  <TORSDO>
F 4

$$$$
ox2_shuffle_esm0_ligand
 OpenBabel10092621223D

 18 19  0  0  0  0  0  0  0  0999 V2000
   -8.5300   -5.9640   -3.0520 C   0  0  0  0  0  0  0  0  0  0  0  0
   -9.2620   -4.7930   -3.2090 C   0  0  0  0  0  3  0  0  0  0  0  0
   -9.2660   -4.1510   -4.4210 C   0  0  0  0  0  3  0  0  0  0  0  0
   -8.5610   -4.6530   -5.4910 C   0  0  0  0  0  0  0  0  0  0  0  0
   -7.8150   -5.8120   -5.3260 C   0  0  0  0  0  0  0  0  0  0  0  0
   -7.8130   -6.4650   -4.1090 C   0  0  0  0  0  3  0  0  0  0  0  0
   -7.3630   -6.6080   -1.0280 C   0  0  0  0  0  1  0  0  0  0  0  0
   -8.5070   -6.6490   -1.8860 O   0  0  0  0  0  0  0  0  0  0  0  0
   -8.5530   -4.0030   -6.8290 C   0  0  0  0  0  0  0  0  0  0  0  0
   -9.2240   -4.5110   -7.6910 O   0  0  0  0  0  0  0  0  0  0  0  0
   -7.8440   -2.7510   -7.1640 C   0  0  0  0  0  0  0  0  0  0  0  0
   -6.6760   -2.8230   -7.9210 C   0  0  0  0  0  3  0  0  0  0  0  0
   -5.9960   -1.6800   -8.2750 C   0  0  0  0  0  3  0  0  0  0  0  0
   -6.4590   -0.4400   -7.8810 C   0  0  0  0  0  3  0  0  0  0  0  0
   -7.6210   -0.3590   -7.1410 C   0  0  0  0  0  3  0  0  0  0  0  0
   -8.3060   -1.5110   -6.7980 C   0  0  0  0  0  3  0  0  0  0  0  0
   -7.1000   -6.2850   -6.3840 O   0  0  0  0  0  0  0  0  0  0  0  0
   -6.4350   -5.7030   -6.8300 H   0  0  0  0  0  0  0  0  0  0  0  0
  1  8  1  0  0  0  0
  2  1  1  0  0  0  0
  3  2  2  0  0  0  0
  4  5  2  0  0  0  0
  4  3  1  0  0  0  0
  5  6  1  0  0  0  0
  6  1  2  0  0  0  0
  8  7  1  0  0  0  0
  9  4  1  0  0  0  0
 10  9  2  0  0  0  0
 11  9  1  0  0  0  0
 11 16  1  0  0  0  0
 12 11  2  0  0  0  0
 13 12  1  0  0  0  0
 13 14  2  0  0  0  0
 14 15  1  0  0  0  0
 15 16  2  0  0  0  0
 17  5  1  0  0  0  0
 18 17  1  0  0  0  0
M  END
>  <MODEL>
5

>  <REMARK>
 VINA RESULT:      -5.3      2.685      6.206
  Name = ox2_shuffle_esm0_ligand
  5 active torsions:
  status: ('A' for Active; 'I' for Inactive)
    1  A    between atoms: C_1  and  O_2
    2  A    between atoms: O_2  and  C_3
    3  A    between atoms: C_6  and  C_7
    4  A    between atoms: C_7  and  C_9
    5  A    between atoms: C_15  and  O_16
                            x       y       z     vdW  Elec       q    Type
                         _______ _______ _______ _____ _____    ______ ____

>  <TORSDO>
F 4

$$$$
ox2_shuffle_esm0_ligand
 OpenBabel10092621223D

 18 19  0  0  0  0  0  0  0  0999 V2000
   -8.0900   -5.4970   -6.4600 C   0  0  0  0  0  0  0  0  0  0  0  0
   -8.5860   -4.2430   -6.1270 C   0  0  0  0  0  3  0  0  0  0  0  0
   -8.0600   -3.1230   -6.7200 C   0  0  0  0  0  3  0  0  0  0  0  0
   -7.0500   -3.2230   -7.6490 C   0  0  0  0  0  0  0  0  0  0  0  0
   -6.5420   -4.4750   -7.9660 C   0  0  0  0  0  0  0  0  0  0  0  0
   -7.0730   -5.6050   -7.3760 C   0  0  0  0  0  3  0  0  0  0  0  0
   -8.5120   -6.8800   -4.5150 C   0  0  0  0  0  1  0  0  0  0  0  0
   -8.5850   -6.6350   -5.9230 O   0  0  0  0  0  0  0  0  0  0  0  0
   -6.4620   -2.0390   -8.3320 C   0  0  0  0  0  0  0  0  0  0  0  0
   -6.2780   -2.1260   -9.5200 O   0  0  0  0  0  0  0  0  0  0  0  0
   -6.1510   -0.7480   -7.6860 C   0  0  0  0  0  0  0  0  0  0  0  0
   -7.0960    0.2760   -7.7420 C   0  0  0  0  0  3  0  0  0  0  0  0
   -6.8560    1.4870   -7.1340 C   0  0  0  0  0  3  0  0  0  0  0  0
   -5.6720    1.7100   -6.4610 C   0  0  0  0  0  3  0  0  0  0  0  0
   -4.7360    0.6980   -6.3900 C   0  0  0  0  0  3  0  0  0  0  0  0
   -4.9870   -0.5220   -6.9940 C   0  0  0  0  0  3  0  0  0  0  0  0
   -5.5250   -4.5590   -8.8660 O   0  0  0  0  0  0  0  0  0  0  0  0
   -4.6480   -4.1490   -8.6610 H   0  0  0  0  0  0  0  0  0  0  0  0
  1  2  1  0  0  0  0
  1  8  1  0  0  0  0
  3  2  2  0  0  0  0
  4  3  1  0  0  0  0
  5  4  2  0  0  0  0
  5  6  1  0  0  0  0
  6  1  2  0  0  0  0
  8  7  1  0  0  0  0
  9 11  1  0  0  0  0
  9  4  1  0  0  0  0
 10  9  2  0  0  0  0
 11 16  1  0  0  0  0
 12 11  2  0  0  0  0
 12 13  1  0  0  0  0
 13 14  2  0  0  0  0
 14 15  1  0  0  0  0
 16 15  2  0  0  0  0
 17 18  1  0  0  0  0
 17  5  1  0  0  0  0
M  END
>  <MODEL>
6

>  <REMARK>
 VINA RESULT:      -5.2      2.252      6.149
  Name = ox2_shuffle_esm0_ligand
  5 active torsions:
  status: ('A' for Active; 'I' for Inactive)
    1  A    between atoms: C_1  and  O_2
    2  A    between atoms: O_2  and  C_3
    3  A    between atoms: C_6  and  C_7
    4  A    between atoms: C_7  and  C_9
    5  A    between atoms: C_15  and  O_16
                            x       y       z     vdW  Elec       q    Type
                         _______ _______ _______ _____ _____    ______ ____

>  <TORSDO>
F 4

$$$$
ox2_shuffle_esm0_ligand
 OpenBabel10092621223D

 18 19  0  0  0  0  0  0  0  0999 V2000
    9.7920   -1.7360   -1.2760 C   0  0  0  0  0  0  0  0  0  0  0  0
   10.2850   -0.8430   -2.2210 C   0  0  0  0  0  3  0  0  0  0  0  0
    9.5620   -0.5900   -3.3590 C   0  0  0  0  0  3  0  0  0  0  0  0
    8.3490   -1.2010   -3.5790 C   0  0  0  0  0  0  0  0  0  0  0  0
    7.8690   -2.1070   -2.6440 C   0  0  0  0  0  0  0  0  0  0  0  0
    8.5890   -2.3610   -1.4940 C   0  0  0  0  0  3  0  0  0  0  0  0
   10.5790   -3.3490    0.3520 C   0  0  0  0  0  1  0  0  0  0  0  0
   10.4510   -2.0070   -0.1280 O   0  0  0  0  0  0  0  0  0  0  0  0
    7.5230   -0.9420   -4.7890 C   0  0  0  0  0  0  0  0  0  0  0  0
    7.4900   -1.8080   -5.6270 O   0  0  0  0  0  0  0  0  0  0  0  0
    6.6900    0.2570   -5.0120 C   0  0  0  0  0  0  0  0  0  0  0  0
    5.3120    0.1000   -5.1540 C   0  0  0  0  0  3  0  0  0  0  0  0
    4.4950    1.1910   -5.3410 C   0  0  0  0  0  3  0  0  0  0  0  0
    5.0300    2.4640   -5.3970 C   0  0  0  0  0  3  0  0  0  0  0  0
    6.3920    2.6290   -5.2460 C   0  0  0  0  0  3  0  0  0  0  0  0
    7.2060    1.5280   -5.0470 C   0  0  0  0  0  3  0  0  0  0  0  0
    6.6800   -2.7260   -2.8850 O   0  0  0  0  0  0  0  0  0  0  0  0
    6.5380   -3.2070   -3.7380 H   0  0  0  0  0  0  0  0  0  0  0  0
  1  8  1  0  0  0  0
  2  1  2  0  0  0  0
  3  2  1  0  0  0  0
  4  3  2  0  0  0  0
  4  5  1  0  0  0  0
  5  6  2  0  0  0  0
  6  1  1  0  0  0  0
  8  7  1  0  0  0  0
  9  4  1  0  0  0  0
 10  9  2  0  0  0  0
 11  9  1  0  0  0  0
 12 11  2  0  0  0  0
 13 12  1  0  0  0  0
 14 13  2  0  0  0  0
 14 15  1  0  0  0  0
 15 16  2  0  0  0  0
 16 11  1  0  0  0  0
 17  5  1  0  0  0  0
 18 17  1  0  0  0  0
M  END
>  <MODEL>
7

>  <REMARK>
 VINA RESULT:      -5.0     13.567     15.985
  Name = ox2_shuffle_esm0_ligand
  5 active torsions:
  status: ('A' for Active; 'I' for Inactive)
    1  A    between atoms: C_1  and  O_2
    2  A    between atoms: O_2  and  C_3
    3  A    between atoms: C_6  and  C_7
    4  A    between atoms: C_7  and  C_9
    5  A    between atoms: C_15  and  O_16
                            x       y       z     vdW  Elec       q    Type
                         _______ _______ _______ _____ _____    ______ ____

>  <TORSDO>
F 4

$$$$
ox2_shuffle_esm0_ligand
 OpenBabel10092621223D

 18 19  0  0  0  0  0  0  0  0999 V2000
    1.5460    7.5720    5.9610 C   0  0  0  0  0  0  0  0  0  0  0  0
    2.2820    7.0350    4.9110 C   0  0  0  0  0  3  0  0  0  0  0  0
    1.7550    7.0310    3.6440 C   0  0  0  0  0  3  0  0  0  0  0  0
    0.5090    7.5580    3.3930 C   0  0  0  0  0  0  0  0  0  0  0  0
   -0.2320    8.0750    4.4460 C   0  0  0  0  0  0  0  0  0  0  0  0
    0.2970    8.0880    5.7220 C   0  0  0  0  0  3  0  0  0  0  0  0
    1.4020    8.4430    8.2180 C   0  0  0  0  0  1  0  0  0  0  0  0
    2.0240    7.6220    7.2240 O   0  0  0  0  0  0  0  0  0  0  0  0
   -0.0930    7.5930    2.0330 C   0  0  0  0  0  0  0  0  0  0  0  0
    0.0790    8.5920    1.3810 O   0  0  0  0  0  0  0  0  0  0  0  0
   -0.8250    6.4790    1.3950 C   0  0  0  0  0  0  0  0  0  0  0  0
   -1.1570    6.5810    0.0450 C   0  0  0  0  0  3  0  0  0  0  0  0
   -1.8190    5.5580   -0.5940 C   0  0  0  0  0  3  0  0  0  0  0  0
   -2.1690    4.4130    0.0940 C   0  0  0  0  0  3  0  0  0  0  0  0
   -1.8330    4.2990    1.4280 C   0  0  0  0  0  3  0  0  0  0  0  0
   -1.1580    5.3270    2.0620 C   0  0  0  0  0  3  0  0  0  0  0  0
   -1.4740    8.5700    4.1900 O   0  0  0  0  0  0  0  0  0  0  0  0
   -2.2570    8.2160    4.6820 H   0  0  0  0  0  0  0  0  0  0  0  0
  1  8  1  0  0  0  0
  2  1  2  0  0  0  0
  3  2  1  0  0  0  0
  4  3  2  0  0  0  0
  4  5  1  0  0  0  0
  5  6  2  0  0  0  0
  6  1  1  0  0  0  0
  8  7  1  0  0  0  0
  9  4  1  0  0  0  0
 10  9  2  0  0  0  0
 11  9  1  0  0  0  0
 11 16  1  0  0  0  0
 12 11  2  0  0  0  0
 13 12  1  0  0  0  0
 13 14  2  0  0  0  0
 14 15  1  0  0  0  0
 15 16  2  0  0  0  0
 17  5  1  0  0  0  0
 17 18  1  0  0  0  0
M  END
>  <MODEL>
8

>  <REMARK>
 VINA RESULT:      -5.0     13.026     15.883
  Name = ox2_shuffle_esm0_ligand
  5 active torsions:
  status: ('A' for Active; 'I' for Inactive)
    1  A    between atoms: C_1  and  O_2
    2  A    between atoms: O_2  and  C_3
    3  A    between atoms: C_6  and  C_7
    4  A    between atoms: C_7  and  C_9
    5  A    between atoms: C_15  and  O_16
                            x       y       z     vdW  Elec       q    Type
                         _______ _______ _______ _____ _____    ______ ____

>  <TORSDO>
F 4

$$$$
ox2_shuffle_esm0_ligand
 OpenBabel10092621223D

 18 19  0  0  0  0  0  0  0  0999 V2000
   -5.3750    1.1970   -4.1910 C   0  0  0  0  0  0  0  0  0  0  0  0
   -4.7560    0.8480   -5.3850 C   0  0  0  0  0  3  0  0  0  0  0  0
   -5.4300    0.0830   -6.3030 C   0  0  0  0  0  3  0  0  0  0  0  0
   -6.7180   -0.3390   -6.0640 C   0  0  0  0  0  0  0  0  0  0  0  0
   -7.3270   -0.0070   -4.8620 C   0  0  0  0  0  0  0  0  0  0  0  0
   -6.6540    0.7680   -3.9380 C   0  0  0  0  0  3  0  0  0  0  0  0
   -3.5860    1.5150   -2.5880 C   0  0  0  0  0  1  0  0  0  0  0  0
   -4.7660    1.9650   -3.2600 O   0  0  0  0  0  0  0  0  0  0  0  0
   -7.4940   -1.1530   -7.0380 C   0  0  0  0  0  0  0  0  0  0  0  0
   -8.4050   -0.6050   -7.6080 O   0  0  0  0  0  0  0  0  0  0  0  0
   -7.1980   -2.5510   -7.4100 C   0  0  0  0  0  0  0  0  0  0  0  0
   -7.9510   -3.5730   -6.8320 C   0  0  0  0  0  3  0  0  0  0  0  0
   -7.7230   -4.8880   -7.1670 C   0  0  0  0  0  3  0  0  0  0  0  0
   -6.7400   -5.2190   -8.0790 C   0  0  0  0  0  3  0  0  0  0  0  0
   -5.9990   -4.2120   -8.6640 C   0  0  0  0  0  3  0  0  0  0  0  0
   -6.2400   -2.8900   -8.3320 C   0  0  0  0  0  3  0  0  0  0  0  0
   -8.5910   -0.4520   -4.6250 O   0  0  0  0  0  0  0  0  0  0  0  0
   -8.8160   -0.8590   -3.7500 H   0  0  0  0  0  0  0  0  0  0  0  0
  1  6  1  0  0  0  0
  1  8  1  0  0  0  0
  2  1  2  0  0  0  0
  3  4  2  0  0  0  0
  3  2  1  0  0  0  0
  4  5  1  0  0  0  0
  5 17  1  0  0  0  0
  5  6  2  0  0  0  0
  8  7  1  0  0  0  0
  9  4  1  0  0  0  0
 10  9  2  0  0  0  0
 11  9  1  0  0  0  0
 11 12  1  0  0  0  0
 13 12  2  0  0  0  0
 14 13  1  0  0  0  0
 15 16  1  0  0  0  0
 15 14  2  0  0  0  0
 16 11  2  0  0  0  0
 17 18  1  0  0  0  0
M  END
>  <MODEL>
9

>  <REMARK>
 VINA RESULT:      -4.9      2.040      2.567
  Name = ox2_shuffle_esm0_ligand
  5 active torsions:
  status: ('A' for Active; 'I' for Inactive)
    1  A    between atoms: C_1  and  O_2
    2  A    between atoms: O_2  and  C_3
    3  A    between atoms: C_6  and  C_7
    4  A    between atoms: C_7  and  C_9
    5  A    between atoms: C_15  and  O_16
                            x       y       z     vdW  Elec       q    Type
                         _______ _______ _______ _____ _____    ______ ____

>  <TORSDO>
F 4

$$$$
