ox3_orig_f8_ligand
 OpenBabel10092621233D

 18 19  0  0  0  0  0  0  0  0999 V2000
    7.3360  -11.0240    2.8670 C   0  0  0  0  0  0  0  0  0  0  0  0
    7.2750  -10.2970    1.6770 C   0  0  0  0  0  3  0  0  0  0  0  0
    6.0890  -10.2340    0.9630 C   0  0  0  0  0  3  0  0  0  0  0  0
    4.9510  -10.8890    1.4270 C   0  0  0  0  0  0  0  0  0  0  0  0
    5.0270  -11.6210    2.6120 C   0  0  0  0  0  0  0  0  0  0  0  0
    6.2210  -11.6810    3.3200 C   0  0  0  0  0  3  0  0  0  0  0  0
    9.2980   -9.9620    3.8280 C   0  0  0  0  0  1  0  0  0  0  0  0
    8.4860  -11.1160    3.6130 O   0  0  0  0  0  0  0  0  0  0  0  0
    3.6610  -10.8380    0.6590 C   0  0  0  0  0  0  0  0  0  0  0  0
    2.8130  -10.0560    1.0170 O   0  0  0  0  0  0  0  0  0  0  0  0
    3.3800  -11.7340   -0.4890 C   0  0  0  0  0  0  0  0  0  0  0  0
    3.9250  -11.4980   -1.7440 C   0  0  0  0  0  3  0  0  0  0  0  0
    3.6160  -12.3300   -2.8040 C   0  0  0  0  0  3  0  0  0  0  0  0
    2.8050  -13.4340   -2.6250 C   0  0  0  0  0  3  0  0  0  0  0  0
    2.2440  -13.6690   -1.3810 C   0  0  0  0  0  3  0  0  0  0  0  0
    2.5100  -12.8100   -0.3130 C   0  0  0  0  0  3  0  0  0  0  0  0
    3.9250  -12.2850    3.0610 O   0  0  0  0  0  0  0  0  0  0  0  0
    3.3750  -12.8140    2.4310 H   0  0  0  0  0  0  0  0  0  0  0  0
  1  6  1  0  0  0  0
  1  8  1  0  0  0  0
  2  1  2  0  0  0  0
  3  4  2  0  0  0  0
  3  2  1  0  0  0  0
  4  5  1  0  0  0  0
  5 17  1  0  0  0  0
  5  6  2  0  0  0  0
  8  7  1  0  0  0  0
  9 10  2  0  0  0  0
  9  4  1  0  0  0  0
 11 16  1  0  0  0  0
 11  9  1  0  0  0  0
 12 11  2  0  0  0  0
 13 14  2  0  0  0  0
 13 12  1  0  0  0  0
 14 15  1  0  0  0  0
 15 16  2  0  0  0  0
 18 17  1  0  0  0  0
M  END
>  <MODEL>
1

>  <REMARK>
 VINA RESULT:      -4.0      0.000      0.000
  Name = ox3_orig_f8_ligand
  5 active torsions:
  status: ('A' for Active; 'I' for Inactive)
    1  A    between atoms: C_1  and  O_2
    2  A    between atoms: O_2  and  C_3
    3  A    between atoms: C_6  and  C_7
    4  A    between atoms: C_7  and  C_9
    5  A    between atoms: C_15  and  O_16
                            x       y       z     vdW  Elec       q    Type
                         _______ _______ _______ _____ _____    ______ ____

>  <TORSDO>
F 4

$$$$
ox3_orig_f8_ligand
 OpenBabel10092621233D

 18 19  0  0  0  0  0  0  0  0999 V2000
    6.8860  -11.6220    3.5180 C   0  0  0  0  0  0  0  0  0  0  0  0
    5.6640  -12.2620    3.7340 C   0  0  0  0  0  3  0  0  0  0  0  0
    4.6020  -12.0360    2.8730 C   0  0  0  0  0  3  0  0  0  0  0  0
    4.7440  -11.1770    1.7880 C   0  0  0  0  0  0  0  0  0  0  0  0
    5.9670  -10.5350    1.5880 C   0  0  0  0  0  0  0  0  0  0  0  0
    7.0260  -10.7640    2.4570 C   0  0  0  0  0  3  0  0  0  0  0  0
    7.8790  -12.6950    5.4580 C   0  0  0  0  0  1  0  0  0  0  0  0
    7.9700  -11.8130    4.3400 O   0  0  0  0  0  0  0  0  0  0  0  0
    3.5990  -10.9150    0.8510 C   0  0  0  0  0  0  0  0  0  0  0  0
    2.9020   -9.9490    1.0570 O   0  0  0  0  0  0  0  0  0  0  0  0
    3.2730  -11.8140   -0.2820 C   0  0  0  0  0  0  0  0  0  0  0  0
    2.4440  -12.9160   -0.1180 C   0  0  0  0  0  3  0  0  0  0  0  0
    2.1870  -13.7570   -1.1850 C   0  0  0  0  0  3  0  0  0  0  0  0
    2.7040  -13.4910   -2.4370 C   0  0  0  0  0  3  0  0  0  0  0  0
    3.5440  -12.4040   -2.6070 C   0  0  0  0  0  3  0  0  0  0  0  0
    3.8500  -11.5730   -1.5280 C   0  0  0  0  0  3  0  0  0  0  0  0
    6.1080   -9.6720    0.5420 O   0  0  0  0  0  0  0  0  0  0  0  0
    6.2320  -10.0230   -0.3750 H   0  0  0  0  0  0  0  0  0  0  0  0
  1  2  1  0  0  0  0
  1  8  1  0  0  0  0
  3  2  2  0  0  0  0
  4  3  1  0  0  0  0
  5  4  2  0  0  0  0
  5  6  1  0  0  0  0
  6  1  2  0  0  0  0
  8  7  1  0  0  0  0
  9 10  2  0  0  0  0
  9  4  1  0  0  0  0
 11 12  1  0  0  0  0
 11  9  1  0  0  0  0
 13 12  2  0  0  0  0
 14 13  1  0  0  0  0
 15 14  2  0  0  0  0
 15 16  1  0  0  0  0
 16 11  2  0  0  0  0
 17  5  1  0  0  0  0
 18 17  1  0  0  0  0
M  END
>  <MODEL>
2

>  <REMARK>
 VINA RESULT:      -3.8      1.189      2.184
  Name = ox3_orig_f8_ligand
  5 active torsions:
  status: ('A' for Active; 'I' for Inactive)
    1  A    between atoms: C_1  and  O_2
    2  A    between atoms: O_2  and  C_3
    3  A    between atoms: C_6  and  C_7
    4  A    between atoms: C_7  and  C_9
    5  A    between atoms: C_15  and  O_16
                            x       y       z     vdW  Elec       q    Type
                         _______ _______ _______ _____ _____    ______ ____

>  <TORSDO>
F 4

$$$$
ox3_orig_f8_ligand
 OpenBabel10092621233D

 18 19  0  0  0  0  0  0  0  0999 V2000
    5.1920  -12.2640   -1.3870 C   0  0  0  0  0  0  0  0  0  0  0  0
    6.5780  -12.2160   -1.2320 C   0  0  0  0  0  3  0  0  0  0  0  0
    7.1380  -11.4100   -0.2530 C   0  0  0  0  0  3  0  0  0  0  0  0
    6.3280  -10.6490    0.5840 C   0  0  0  0  0  0  0  0  0  0  0  0
    4.9440  -10.6990    0.4130 C   0  0  0  0  0  0  0  0  0  0  0  0
    4.3900  -11.5060   -0.5720 C   0  0  0  0  0  3  0  0  0  0  0  0
    3.2140  -12.8410   -2.6730 C   0  0  0  0  0  1  0  0  0  0  0  0
    4.5860  -13.0470   -2.3390 O   0  0  0  0  0  0  0  0  0  0  0  0
    6.9210   -9.7650    1.6430 C   0  0  0  0  0  0  0  0  0  0  0  0
    6.6870   -8.5810    1.5960 O   0  0  0  0  0  0  0  0  0  0  0  0
    7.8080  -10.2840    2.7120 C   0  0  0  0  0  0  0  0  0  0  0  0
    7.4300  -11.3550    3.5110 C   0  0  0  0  0  3  0  0  0  0  0  0
    8.2630  -11.7950    4.5230 C   0  0  0  0  0  3  0  0  0  0  0  0
    9.5000  -11.2150    4.7250 C   0  0  0  0  0  3  0  0  0  0  0  0
    9.8790  -10.1360    3.9450 C   0  0  0  0  0  3  0  0  0  0  0  0
    9.0280   -9.6520    2.9500 C   0  0  0  0  0  3  0  0  0  0  0  0
    4.1420   -9.9380    1.2120 O   0  0  0  0  0  0  0  0  0  0  0  0
    4.5400   -9.2410    1.7910 H   0  0  0  0  0  0  0  0  0  0  0  0
  1  2  2  0  0  0  0
  1  6  1  0  0  0  0
  2  3  1  0  0  0  0
  3  4  2  0  0  0  0
  4  9  1  0  0  0  0
  5  4  1  0  0  0  0
  5 17  1  0  0  0  0
  6  5  2  0  0  0  0
  7  8  1  0  0  0  0
  8  1  1  0  0  0  0
  9 11  1  0  0  0  0
 10  9  2  0  0  0  0
 11 16  2  0  0  0  0
 11 12  1  0  0  0  0
 12 13  2  0  0  0  0
 13 14  1  0  0  0  0
 15 14  2  0  0  0  0
 16 15  1  0  0  0  0
 17 18  1  0  0  0  0
M  END
>  <MODEL>
3

>  <REMARK>
 VINA RESULT:      -3.6      1.965      6.242
  Name = ox3_orig_f8_ligand
  5 active torsions:
  status: ('A' for Active; 'I' for Inactive)
    1  A    between atoms: C_1  and  O_2
    2  A    between atoms: O_2  and  C_3
    3  A    between atoms: C_6  and  C_7
    4  A    between atoms: C_7  and  C_9
    5  A    between atoms: C_15  and  O_16
                            x       y       z     vdW  Elec       q    Type
                         _______ _______ _______ _____ _____    ______ ____

>  <TORSDO>
F 4

$$$$
ox3_orig_f8_ligand
 OpenBabel10092621233D

 18 19  0  0  0  0  0  0  0  0999 V2000
    3.1430  -13.8410   -2.2190 C   0  0  0  0  0  0  0  0  0  0  0  0
    4.2930  -13.0530   -2.2860 C   0  0  0  0  0  3  0  0  0  0  0  0
    4.5430  -12.1050   -1.3070 C   0  0  0  0  0  3  0  0  0  0  0  0
    3.6550  -11.9340   -0.2480 C   0  0  0  0  0  0  0  0  0  0  0  0
    2.5030  -12.7200   -0.1970 C   0  0  0  0  0  0  0  0  0  0  0  0
    2.2590  -13.6660   -1.1840 C   0  0  0  0  0  3  0  0  0  0  0  0
    3.1830  -16.1630   -2.9280 C   0  0  0  0  0  1  0  0  0  0  0  0
    2.8500  -14.7950   -3.1620 O   0  0  0  0  0  0  0  0  0  0  0  0
    3.9070  -10.9040    0.8160 C   0  0  0  0  0  0  0  0  0  0  0  0
    3.0630  -10.0610    1.0070 O   0  0  0  0  0  0  0  0  0  0  0  0
    5.1620  -10.8620    1.6050 C   0  0  0  0  0  0  0  0  0  0  0  0
    6.1460   -9.9150    1.3530 C   0  0  0  0  0  3  0  0  0  0  0  0
    7.3210   -9.9240    2.0810 C   0  0  0  0  0  3  0  0  0  0  0  0
    7.5170  -10.8360    3.0990 C   0  0  0  0  0  3  0  0  0  0  0  0
    6.5490  -11.7940    3.3480 C   0  0  0  0  0  3  0  0  0  0  0  0
    5.3780  -11.8260    2.5890 C   0  0  0  0  0  3  0  0  0  0  0  0
    1.6160  -12.5430    0.8220 O   0  0  0  0  0  0  0  0  0  0  0  0
    1.7450  -13.0200    1.6790 H   0  0  0  0  0  0  0  0  0  0  0  0
  1  6  1  0  0  0  0
  2  1  2  0  0  0  0
  2  3  1  0  0  0  0
  3  4  2  0  0  0  0
  4  5  1  0  0  0  0
  4  9  1  0  0  0  0
  5 17  1  0  0  0  0
  6  5  2  0  0  0  0
  8  7  1  0  0  0  0
  8  1  1  0  0  0  0
  9 10  2  0  0  0  0
  9 11  1  0  0  0  0
 11 16  1  0  0  0  0
 12 11  2  0  0  0  0
 12 13  1  0  0  0  0
 13 14  2  0  0  0  0
 14 15  1  0  0  0  0
 16 15  2  0  0  0  0
 17 18  1  0  0  0  0
M  END
>  <MODEL>
4

>  <REMARK>
 VINA RESULT:      -3.6      1.868      5.797
  Name = ox3_orig_f8_ligand
  5 active torsions:
  status: ('A' for Active; 'I' for Inactive)
    1  A    between atoms: C_1  and  O_2
    2  A    between atoms: O_2  and  C_3
    3  A    between atoms: C_6  and  C_7
    4  A    between atoms: C_7  and  C_9
    5  A    between atoms: C_15  and  O_16
                            x       y       z     vdW  Elec       q    Type
                         _______ _______ _______ _____ _____    ______ ____

>  <TORSDO>
F 4

$$$$
ox3_orig_f8_ligand
 OpenBabel10092621233D

 18 19  0  0  0  0  0  0  0  0999 V2000
    4.2320  -12.1690    0.2030 C   0  0  0  0  0  0  0  0  0  0  0  0
    4.3620  -12.0320    1.5870 C   0  0  0  0  0  3  0  0  0  0  0  0
    5.3200  -11.1800    2.1120 C   0  0  0  0  0  3  0  0  0  0  0  0
    6.1560  -10.4530    1.2690 C   0  0  0  0  0  0  0  0  0  0  0  0
    6.0240  -10.6050   -0.1110 C   0  0  0  0  0  0  0  0  0  0  0  0
    5.0630  -11.4640   -0.6300 C   0  0  0  0  0  3  0  0  0  0  0  0
    2.1500  -13.4060    0.3750 C   0  0  0  0  0  1  0  0  0  0  0  0
    3.2980  -12.9970   -0.3680 O   0  0  0  0  0  0  0  0  0  0  0  0
    7.2060   -9.5330    1.8240 C   0  0  0  0  0  0  0  0  0  0  0  0
    6.9790   -8.3460    1.8350 O   0  0  0  0  0  0  0  0  0  0  0  0
    8.5160  -10.0230    2.3190 C   0  0  0  0  0  0  0  0  0  0  0  0
    9.2530   -9.3050    3.2510 C   0  0  0  0  0  3  0  0  0  0  0  0
   10.4880   -9.7690    3.6660 C   0  0  0  0  0  3  0  0  0  0  0  0
   10.9850  -10.9720    3.2030 C   0  0  0  0  0  3  0  0  0  0  0  0
   10.2650  -11.6860    2.2610 C   0  0  0  0  0  3  0  0  0  0  0  0
    9.0380  -11.2060    1.7980 C   0  0  0  0  0  3  0  0  0  0  0  0
    6.8540   -9.9160   -0.9440 O   0  0  0  0  0  0  0  0  0  0  0  0
    7.3970  -10.4020   -1.6150 H   0  0  0  0  0  0  0  0  0  0  0  0
  1  2  1  0  0  0  0
  2  3  2  0  0  0  0
  4  9  1  0  0  0  0
  4  3  1  0  0  0  0
  5  4  2  0  0  0  0
  6  5  1  0  0  0  0
  6  1  2  0  0  0  0
  8  1  1  0  0  0  0
  8  7  1  0  0  0  0
  9 10  2  0  0  0  0
  9 11  1  0  0  0  0
 11 12  1  0  0  0  0
 12 13  2  0  0  0  0
 14 13  1  0  0  0  0
 15 14  2  0  0  0  0
 16 15  1  0  0  0  0
 16 11  2  0  0  0  0
 17  5  1  0  0  0  0
 18 17  1  0  0  0  0
M  END
>  <MODEL>
5

>  <REMARK>
 VINA RESULT:      -3.6      2.059      6.313
  Name = ox3_orig_f8_ligand
  5 active torsions:
  status: ('A' for Active; 'I' for Inactive)
    1  A    between atoms: C_1  and  O_2
    2  A    between atoms: O_2  and  C_3
    3  A    between atoms: C_6  and  C_7
    4  A    between atoms: C_7  and  C_9
    5  A    between atoms: C_15  and  O_16
                            x       y       z     vdW  Elec       q    Type
                         _______ _______ _______ _____ _____    ______ ____

>  <TORSDO>
F 4

$$$$
ox3_orig_f8_ligand
 OpenBabel10092621233D

 18 19  0  0  0  0  0  0  0  0999 V2000
    9.2040  -11.1040    3.3370 C   0  0  0  0  0  0  0  0  0  0  0  0
    9.1100  -12.1450    2.4110 C   0  0  0  0  0  3  0  0  0  0  0  0
    8.3420  -11.9880    1.2680 C   0  0  0  0  0  3  0  0  0  0  0  0
    7.6640  -10.7960    1.0310 C   0  0  0  0  0  0  0  0  0  0  0  0
    7.7570   -9.7670    1.9680 C   0  0  0  0  0  0  0  0  0  0  0  0
    8.5260   -9.9330    3.1130 C   0  0  0  0  0  3  0  0  0  0  0  0
    9.6590  -10.3820    5.6100 C   0  0  0  0  0  1  0  0  0  0  0  0
    9.9520  -11.2070    4.4830 O   0  0  0  0  0  0  0  0  0  0  0  0
    6.8200  -10.6160   -0.1990 C   0  0  0  0  0  0  0  0  0  0  0  0
    7.2310   -9.8900   -1.0730 O   0  0  0  0  0  0  0  0  0  0  0  0
    5.4940  -11.2610   -0.3590 C   0  0  0  0  0  0  0  0  0  0  0  0
    4.4670  -11.0400    0.5480 C   0  0  0  0  0  3  0  0  0  0  0  0
    3.2530  -11.6840    0.3930 C   0  0  0  0  0  3  0  0  0  0  0  0
    3.0240  -12.5140   -0.6870 C   0  0  0  0  0  3  0  0  0  0  0  0
    4.0470  -12.7530   -1.5880 C   0  0  0  0  0  3  0  0  0  0  0  0
    5.2930  -12.1460   -1.4180 C   0  0  0  0  0  3  0  0  0  0  0  0
    7.0770   -8.6050    1.7570 O   0  0  0  0  0  0  0  0  0  0  0  0
    7.3870   -7.9690    1.0660 H   0  0  0  0  0  0  0  0  0  0  0  0
  1  8  1  0  0  0  0
  2  1  2  0  0  0  0
  3  2  1  0  0  0  0
  4  3  2  0  0  0  0
  4  5  1  0  0  0  0
  5  6  2  0  0  0  0
  6  1  1  0  0  0  0
  8  7  1  0  0  0  0
  9  4  1  0  0  0  0
 10  9  2  0  0  0  0
 11  9  1  0  0  0  0
 11 12  1  0  0  0  0
 13 12  2  0  0  0  0
 14 13  1  0  0  0  0
 15 16  1  0  0  0  0
 15 14  2  0  0  0  0
 16 11  2  0  0  0  0
 17  5  1  0  0  0  0
 18 17  1  0  0  0  0
M  END
>  <MODEL>
6

>  <REMARK>
 VINA RESULT:      -3.4      2.168      2.992
  Name = ox3_orig_f8_ligand
  5 active torsions:
  status: ('A' for Active; 'I' for Inactive)
    1  A    between atoms: C_1  and  O_2
    2  A    between atoms: O_2  and  C_3
    3  A    between atoms: C_6  and  C_7
    4  A    between atoms: C_7  and  C_9
    5  A    between atoms: C_15  and  O_16
                            x       y       z     vdW  Elec       q    Type
                         _______ _______ _______ _____ _____    ______ ____

>  <TORSDO>
F 4

$$$$
ox3_orig_f8_ligand
 OpenBabel10092621233D

 18 19  0  0  0  0  0  0  0  0999 V2000
    1.4750   -6.5420   10.1300 C   0  0  0  0  0  0  0  0  0  0  0  0
    0.8330   -5.9590   11.2240 C   0  0  0  0  0  3  0  0  0  0  0  0
   -0.2690   -5.1420   11.0260 C   0  0  0  0  0  3  0  0  0  0  0  0
   -0.7470   -4.8990    9.7420 C   0  0  0  0  0  0  0  0  0  0  0  0
   -0.0910   -5.4790    8.6550 C   0  0  0  0  0  0  0  0  0  0  0  0
    1.0150   -6.2940    8.8610 C   0  0  0  0  0  3  0  0  0  0  0  0
    3.6730   -7.2460    9.3740 C   0  0  0  0  0  1  0  0  0  0  0  0
    2.5690   -7.3600   10.2710 O   0  0  0  0  0  0  0  0  0  0  0  0
   -1.9340   -4.0090    9.5110 C   0  0  0  0  0  0  0  0  0  0  0  0
   -2.9440   -4.5040    9.0710 O   0  0  0  0  0  0  0  0  0  0  0  0
   -1.8970   -2.5480    9.7670 C   0  0  0  0  0  0  0  0  0  0  0  0
   -2.9910   -1.8770   10.2960 C   0  0  0  0  0  3  0  0  0  0  0  0
   -2.9400   -0.5090   10.4890 C   0  0  0  0  0  3  0  0  0  0  0  0
   -1.7910    0.2040   10.2100 C   0  0  0  0  0  3  0  0  0  0  0  0
   -0.7000   -0.4530    9.6660 C   0  0  0  0  0  3  0  0  0  0  0  0
   -0.7550   -1.8270    9.4230 C   0  0  0  0  0  3  0  0  0  0  0  0
   -0.5360   -5.2280    7.3920 O   0  0  0  0  0  0  0  0  0  0  0  0
   -0.4780   -5.9320    6.6980 H   0  0  0  0  0  0  0  0  0  0  0  0
  1  8  1  0  0  0  0
  1  2  1  0  0  0  0
  3  2  2  0  0  0  0
  4  3  1  0  0  0  0
  5  6  1  0  0  0  0
  5  4  2  0  0  0  0
  6  1  2  0  0  0  0
  7  8  1  0  0  0  0
  9  4  1  0  0  0  0
  9 11  1  0  0  0  0
 10  9  2  0  0  0  0
 11 12  1  0  0  0  0
 12 13  2  0  0  0  0
 14 13  1  0  0  0  0
 15 14  2  0  0  0  0
 16 15  1  0  0  0  0
 16 11  2  0  0  0  0
 17  5  1  0  0  0  0
 18 17  1  0  0  0  0
M  END
>  <MODEL>
7

>  <REMARK>
 VINA RESULT:      -3.2     11.989     13.402
  Name = ox3_orig_f8_ligand
  5 active torsions:
  status: ('A' for Active; 'I' for Inactive)
    1  A    between atoms: C_1  and  O_2
    2  A    between atoms: O_2  and  C_3
    3  A    between atoms: C_6  and  C_7
    4  A    between atoms: C_7  and  C_9
    5  A    between atoms: C_15  and  O_16
                            x       y       z     vdW  Elec       q    Type
                         _______ _______ _______ _____ _____    ______ ____

>  <TORSDO>
F 4

$$$$
ox3_orig_f8_ligand
 OpenBabel10092621233D

 18 19  0  0  0  0  0  0  0  0999 V2000
    1.2750   -6.9720    9.9420 C   0  0  0  0  0  0  0  0  0  0  0  0
    1.3550   -6.1750   11.0860 C   0  0  0  0  0  3  0  0  0  0  0  0
    0.7660   -4.9210   11.0990 C   0  0  0  0  0  3  0  0  0  0  0  0
    0.0910   -4.4460    9.9790 C   0  0  0  0  0  0  0  0  0  0  0  0
    0.0270   -5.2470    8.8380 C   0  0  0  0  0  0  0  0  0  0  0  0
    0.6220   -6.5020    8.8320 C   0  0  0  0  0  3  0  0  0  0  0  0
    2.2860   -8.7460    8.6280 C   0  0  0  0  0  1  0  0  0  0  0  0
    1.8390   -8.2220    9.8780 O   0  0  0  0  0  0  0  0  0  0  0  0
   -0.5440   -3.0840    9.9750 C   0  0  0  0  0  0  0  0  0  0  0  0
   -1.7450   -3.0130   10.0740 O   0  0  0  0  0  0  0  0  0  0  0  0
    0.2440   -1.8370    9.8170 C   0  0  0  0  0  0  0  0  0  0  0  0
   -0.3450   -0.6590    9.3780 C   0  0  0  0  0  3  0  0  0  0  0  0
    0.4230    0.4780    9.2050 C   0  0  0  0  0  3  0  0  0  0  0  0
    1.7690    0.4780    9.5110 C   0  0  0  0  0  3  0  0  0  0  0  0
    2.3690   -0.6960    9.9340 C   0  0  0  0  0  3  0  0  0  0  0  0
    1.6150   -1.8640   10.0690 C   0  0  0  0  0  3  0  0  0  0  0  0
   -0.6120   -4.7810    7.7280 O   0  0  0  0  0  0  0  0  0  0  0  0
   -1.1700   -3.9650    7.7830 H   0  0  0  0  0  0  0  0  0  0  0  0
  1  2  1  0  0  0  0
  2  3  2  0  0  0  0
  4  3  1  0  0  0  0
  5  4  2  0  0  0  0
  6  5  1  0  0  0  0
  6  1  2  0  0  0  0
  7  8  1  0  0  0  0
  8  1  1  0  0  0  0
  9  4  1  0  0  0  0
  9 10  2  0  0  0  0
 11  9  1  0  0  0  0
 11 16  1  0  0  0  0
 12 11  2  0  0  0  0
 13 12  1  0  0  0  0
 13 14  2  0  0  0  0
 14 15  1  0  0  0  0
 15 16  2  0  0  0  0
 17 18  1  0  0  0  0
 17  5  1  0  0  0  0
M  END
>  <MODEL>
8

>  <REMARK>
 VINA RESULT:      -3.2     11.579     13.227
  Name = ox3_orig_f8_ligand
  5 active torsions:
  status: ('A' for Active; 'I' for Inactive)
    1  A    between atoms: C_1  and  O_2
    2  A    between atoms: O_2  and  C_3
    3  A    between atoms: C_6  and  C_7
    4  A    between atoms: C_7  and  C_9
    5  A    between atoms: C_15  and  O_16
                            x       y       z     vdW  Elec       q    Type
                         _______ _______ _______ _____ _____    ______ ____

>  <TORSDO>
F 4

$$$$
ox3_orig_f8_ligand
 OpenBabel10092621233D

 18 19  0  0  0  0  0  0  0  0999 V2000
    8.8790  -12.5210    4.3790 C   0  0  0  0  0  0  0  0  0  0  0  0
    7.5080  -12.3620    4.5930 C   0  0  0  0  0  3  0  0  0  0  0  0
    6.7580  -11.5800    3.7290 C   0  0  0  0  0  3  0  0  0  0  0  0
    7.3600  -10.9530    2.6420 C   0  0  0  0  0  0  0  0  0  0  0  0
    8.7320  -11.1110    2.4430 C   0  0  0  0  0  0  0  0  0  0  0  0
    9.4780  -11.8940    3.3160 C   0  0  0  0  0  3  0  0  0  0  0  0
    9.6410  -13.0810    6.6150 C   0  0  0  0  0  1  0  0  0  0  0  0
    9.6670  -13.2860    5.2030 O   0  0  0  0  0  0  0  0  0  0  0  0
    6.5610  -10.0950    1.7020 C   0  0  0  0  0  0  0  0  0  0  0  0
    6.7770   -8.9070    1.6900 O   0  0  0  0  0  0  0  0  0  0  0  0
    5.4990  -10.6470    0.8250 C   0  0  0  0  0  0  0  0  0  0  0  0
    4.1570  -10.5560    1.1690 C   0  0  0  0  0  3  0  0  0  0  0  0
    3.1920  -11.1120    0.3490 C   0  0  0  0  0  3  0  0  0  0  0  0
    3.5370  -11.7170   -0.8430 C   0  0  0  0  0  3  0  0  0  0  0  0
    4.8740  -11.8260   -1.1860 C   0  0  0  0  0  3  0  0  0  0  0  0
    5.8620  -11.3110   -0.3450 C   0  0  0  0  0  3  0  0  0  0  0  0
    9.3350  -10.4810    1.3960 O   0  0  0  0  0  0  0  0  0  0  0  0
    9.6980   -9.5680    1.5110 H   0  0  0  0  0  0  0  0  0  0  0  0
  1  2  1  0  0  0  0
  1  8  1  0  0  0  0
  3  2  2  0  0  0  0
  4  3  1  0  0  0  0
  5  4  2  0  0  0  0
  5  6  1  0  0  0  0
  6  1  2  0  0  0  0
  8  7  1  0  0  0  0
  9  4  1  0  0  0  0
 10  9  2  0  0  0  0
 11 12  1  0  0  0  0
 11  9  1  0  0  0  0
 13 12  2  0  0  0  0
 14 13  1  0  0  0  0
 15 14  2  0  0  0  0
 15 16  1  0  0  0  0
 16 11  2  0  0  0  0
 17 18  1  0  0  0  0
 17  5  1  0  0  0  0
M  END
>  <MODEL>
9

>  <REMARK>
 VINA RESULT:      -3.2      2.108      3.511
  Name = ox3_orig_f8_ligand
  5 active torsions:
  status: ('A' for Active; 'I' for Inactive)
    1  A    between atoms: C_1  and  O_2
    2  A    between atoms: O_2  and  C_3
    3  A    between atoms: C_6  and  C_7
    4  A    between atoms: C_7  and  C_9
    5  A    between atoms: C_15  and  O_16
                            x       y       z     vdW  Elec       q    Type
                         _______ _______ _______ _____ _____    ______ ____

>  <TORSDO>
F 4

$$$$
