ox2_esm1_f8_dockpose1
     RDKit          3D

 17 18  0  0  0  0  0  0  0  0999 V2000
   -4.4350   -8.5870   -5.2360 C   0  0  0  0  0  0  0  0  0  0  0  0
   -4.3980   -7.1790   -5.5650 O   0  0  0  0  0  0  0  0  0  0  0  0
   -5.4950   -6.4060   -5.3210 C   0  0  0  0  0  0  0  0  0  0  0  0
   -5.4120   -5.0310   -5.1150 C   0  0  0  0  0  0  0  0  0  0  0  0
   -6.5540   -4.2940   -4.8630 C   0  0  0  0  0  0  0  0  0  0  0  0
   -7.7920   -4.9120   -4.8300 C   0  0  0  0  0  0  0  0  0  0  0  0
   -9.0370   -4.1270   -4.5700 C   0  0  0  0  0  0  0  0  0  0  0  0
   -9.9020   -4.0770   -5.4180 O   0  0  0  0  0  0  0  0  0  0  0  0
   -9.2430   -3.4160   -3.2900 C   0  0  0  0  0  0  0  0  0  0  0  0
   -9.2580   -2.0250   -3.2680 C   0  0  0  0  0  0  0  0  0  0  0  0
   -9.4610   -1.3590   -2.0620 C   0  0  0  0  0  0  0  0  0  0  0  0
   -9.6130   -2.0610   -0.8750 C   0  0  0  0  0  0  0  0  0  0  0  0
   -9.5550   -3.4450   -0.9000 C   0  0  0  0  0  0  0  0  0  0  0  0
   -9.3730   -4.1240   -2.1060 C   0  0  0  0  0  0  0  0  0  0  0  0
   -7.8840   -6.2960   -5.0350 C   0  0  0  0  0  0  0  0  0  0  0  0
   -9.1110   -6.9000   -4.9910 O   0  0  0  0  0  0  0  0  0  0  0  0
   -6.7230   -7.0300   -5.2770 C   0  0  0  0  0  0  0  0  0  0  0  0
  2  1  1  0
  3  2  1  0
  4  3  1  0
  5  4  2  0
  6  5  1  0
  7  6  1  0
  8  7  2  0
  9  7  1  0
 10  9  2  0
 11 10  1  0
 12 11  2  0
 13 12  1  0
 14 13  2  0
 14  9  1  0
 15  6  2  0
 16 15  1  0
 17 15  1  0
 17  3  2  0
M  END
$$$$
