bgox31_5_ligand
     RDKit          3D

 29 30  0  0  0  0  0  0  0  0999 V2000
    5.2060    1.5360   -0.9350 C   0  0  1  0  0  0  0  0  0  0  0  0
    5.9980    0.3310   -0.7340 O   0  0  0  0  0  0  0  0  0  0  0  0
    6.1710   -0.2230    0.5840 C   0  0  0  0  0  0  0  0  0  0  0  0
    7.1810   -1.1310    0.6400 C   0  0  0  0  0  0  0  0  0  0  0  0
    7.4800   -1.7570    1.8690 C   0  0  0  0  0  0  0  0  0  0  0  0
    6.7970   -1.4780    3.0350 C   0  0  0  0  0  0  0  0  0  0  0  0
    7.1710   -2.1410    4.2610 C   0  0  0  0  0  0  0  0  0  0  0  0
    6.8530   -1.6210    5.3380 O   0  0  0  0  0  0  0  0  0  0  0  0
    8.0210   -3.3730    4.2260 C   0  0  0  0  0  0  0  0  0  0  0  0
    9.2300   -3.5080    4.8860 C   0  0  0  0  0  0  0  0  0  0  0  0
    9.9890   -4.7080    4.8060 C   0  0  0  0  0  0  0  0  0  0  0  0
    9.5610   -5.7860    4.0910 C   0  0  0  0  0  0  0  0  0  0  0  0
    8.3530   -5.7010    3.4410 C   0  0  0  0  0  0  0  0  0  0  0  0
    7.6220   -4.4910    3.4970 C   0  0  0  0  0  0  0  0  0  0  0  0
    5.7710   -0.5380    2.9790 C   0  0  0  0  0  0  0  0  0  0  0  0
    5.0700   -0.2470    4.1020 O   0  0  0  0  0  0  0  0  0  0  0  0
    5.4580    0.1010    1.7480 C   0  0  0  0  0  0  0  0  0  0  0  0
    4.9279    1.9591    0.0415 H   0  0  0  0  0  0  0  0  0  0  0  0
    5.7964    2.2730   -1.4992 H   0  0  0  0  0  0  0  0  0  0  0  0
    4.2953    1.2863   -1.4992 H   0  0  0  0  0  0  0  0  0  0  0  0
    7.7593   -1.3753   -0.2633 H   0  0  0  0  0  0  0  0  0  0  0  0
    8.2918   -2.4987    1.8986 H   0  0  0  0  0  0  0  0  0  0  0  0
    9.6122   -2.6687    5.4856 H   0  0  0  0  0  0  0  0  0  0  0  0
   10.9504   -4.7677    5.3372 H   0  0  0  0  0  0  0  0  0  0  0  0
   10.1675   -6.7020    4.0353 H   0  0  0  0  0  0  0  0  0  0  0  0
    7.9591   -6.5637    2.8837 H   0  0  0  0  0  0  0  0  0  0  0  0
    6.6812   -4.4293    2.9303 H   0  0  0  0  0  0  0  0  0  0  0  0
    4.3392    0.4201    4.0704 H   0  0  0  0  0  0  0  0  0  0  0  0
    4.6547    0.8514    1.7082 H   0  0  0  0  0  0  0  0  0  0  0  0
  2  1  1  0
  3  2  1  0
  4  3  1  0
  5  4  2  0
  6  5  1  0
  7  6  1  0
  8  7  2  0
  9  7  1  0
 10  9  2  0
 11 10  1  0
 12 11  2  0
 13 12  1  0
 14 13  2  0
 14  9  1  0
 15  6  2  0
 16 15  1  0
 17 15  1  0
 17  3  2  0
  1 18  1  1
  1 19  1  0
  1 20  1  0
  4 21  1  0
  5 22  1  0
 10 23  1  0
 11 24  1  0
 12 25  1  0
 13 26  1  0
 14 27  1  0
 16 28  1  0
 17 29  1  0
M  END
